<?xml version="1.0" encoding="UTF-8"?>
<routes xmlns:xsi="http: // www.w3.org/2001/XMLSchema-instance" xsi:noNamespaceSchemaLocation="http: // sumo.dlr.de/xsd/routes_file.xsd">
<vType id="veh_passenger" vClass="passenger"/>

<vehicle id = "veh0" type= "veh_passenger" depart="0" >
<route edges =" -45342801#4 -45342801#3 -45342801#2 -45342801#1 -45342801#0 45342798#2 45342798#3 45342798#4 45342798#5 45342813#0 45342813#1 45342813#2 -45342814#1 44740902#11 44740902#12 44740902#13 44740902#14 44740902#14.81 44740902#14.94 -874839172#0 -44740943 -313316091#20 951438760#0 951438760#1 -44740929#4 -951438759 44740922#2 44740922#2.25 44740953#0 44740953#2 44740953#3 44740953#4 44740953#5 44740953#6 44740953#7 44740949#2 -44740919#1 -44740919#0 44740920#8 -313316091#0 -313316091#0.27 -313316091#0.72 -313316091#0.80 -971495601#9 -971495601#9.28 -971495601#8 -971495601#7 -971495601#6 -971495601#5 -971495601#3 -971495601#1 -971495601#0 -313316086 -44739144#26 -44739144#24 -44739144#22 -44739144#21 -44739144#20 -44739144#19 -44739144#19.14 -44739144#18 -877398366#21 -877398366#20 -877398366#19 -877398366#18 -877398366#17 -877398366#17.7 -877398366#16 -877398366#15 -877398366#15.29 -877398366#14 -877398366#14.72 -877398366#13 -671191680#14 -671191680#13 -671191680#11 -671191680#9 -671191680#8 -671191680#6 -896786326#1 -896786326#0 -896786328#0 -896786328#0.177 -951951638#10 -951951638#10.18 -951951638#9 -951951638#8 -951951638#7 -951951638#5 -951951638#4 -951951638#3 -951951638#2 -951946794#1 -951946794#0 951946792#1 896786337#8 896786337#8.8 -951887683 -951887684 -951887682#6 -951887682#5 -951887682#4 -951887682#3 951887692 -951887691#0 -951887682#0 -951887700#14 -951961240#3 -951961240#1 -951961245 951891772#0 -951891773 -951891771#0"/>
</vehicle>
<vehicle id = "veh1" type= "veh_passenger" depart="0" >
<route edges =" 45342801#5 45342801#5.32 902433317#3 902433317#4 902433317#6 902433317#7 902433317#8 902433317#8.29 951368593#1 972507120#2 45342812#0 45342812#1 45342811#2 45342811#2.66 45344273#23 45344273#23.11 45344273#24 -897252873#2 -897252873#1 -897252873#1.42 -897252873#0 -897252873#0.25 897252876#4 45344320#2 45344320#3 -45344331#4 45344327#1 903341090 -45344335#4 -950235690#1 -950235690#0 -950235690#0.14 700254525#11 700254524#0 700254523 -700254525#0 45344272#4 950233988#0 45344283#9 45344283#10 45344283#10.15 45344283#10.46 45344283#10.69 45344283#10.88 45344283#10.150 45344283#10.196 45344283#10.260 45344283#10.377 45344283#10.468 45344283#10.514 670655885 670655885.12 896892975 971495602#12 971495602#12.26 971495602#12.77 951442813 951442812#0 -896786335#50 -896786335#49 -896786335#48 -896786335#48.15 -896786335#47 -896786335#46 -896786335#44 -896786335#44.9 -896786335#44.71 -896786335#43 -896786335#42 -896786335#42.22 -896786335#41 -896786335#40 -896786335#39 -896786335#39.27 -896786335#37 -896786335#36 -896786335#34 -896786335#33 -896786335#32 -896786335#32.17 -896786335#31 -896786335#31.22 -896786335#30 -896786335#29 -896786335#29.17 -896786335#28 -896786335#27 -896786335#27.19 -896786335#26 -951995494#1 -951995491#2 -951995491#1 -951995491#0 -896786266#12 909024250#0 909024250#1 909024250#2 909024250#4 909024250#5 909024250#6 909024239#0 909024239#1 909024239#1.17 909024239#2 909024239#2.40 -951983585 -951975994 -896786324#1 -896786324#0 -896786324#0.19 -896786324#0.132 -896786324#0.177 951951639#0 951946803#0 951946795#1 951946795#2 951946795#3 951946795#4 951946795#6 951946795#7 951946795#9 951946795#10 951946795#11 951946795#11.34 951946795#11.40 951946795#11.45 896786337#10 896786337#10.21 -951887700#20 -951887700#19 -671756019#4 -951961235 951961234#1 -951878265#2 -951878265#1 -951878265#0 951878264#2 -951878263#3 -951878266#4 -951878266#4.37 -951878266#2 -951878266#1 -951878266#1.39 -951878266#1.47"/>
</vehicle>
<vehicle id = "veh2" type= "veh_passenger" depart="0" >
<route edges =" 951370989 951370989.40 951370989.47 951370989.53 951370989.56 951370989.62 951370989.64 951370989.67 -902433320#1 -902433320#0 902433321#2 45342799#21 45342809#0 45342809#1 45342809#2 45342809#3 45342809#4 45342809#5 45342809#6 45342809#7 45342809#8 44740885#10 -45342826#1 -45342826#0 45342825#1 45342825#2 45342828#0 45342828#1 45342828#1.100 -45344273#6 -45344273#6.40 -45344273#6.59 -951384598#3 -951384598#2 -951404491 -951404491.16 -951404491.28 -951404491.40 -951404491.51 -951384599#0 700249213#9 700249213#10 700249213#11 45342808#10 45342808#11 45342808#11.24 45342808#12 -897252871 -897252870 -45344310#2 -45344310#1 -45344310#0 -45344310#0.10 -45344310#0.18 -45344310#0.30 -45344310#0.41 -45344310#0.52 971495602#8 971495602#8.24 971495602#8.86 -313316104#6 -45378650#5 -45378650#5.11 -45378650#4 45378645#0 45378645#0.44 -908846596#3 -908846596#2 45378650#1 -908846593 -908846593.73 908560901#8 908560901#8.23 908560901#8.56 -313316104#0 -313316082 -45378649#12 896786296#0 896786296#1 896786296#1.36 -896786262#6 -896786262#6.15 -896786262#5 -896786262#4 -896786262#4.31 -896786262#3 -896786262#3.9 -896786262#1 -896786262#0 -896786262#0.33 -896786262#0.115 -896786260#1 -896786260#1.5 -896786260#0 -896786260#0.52 896786257#4 909024248 909024248.50 -45378665#3 -45378665#3.29 -45378665#3.50 -45378665#2 -45378665#2.36 -45378665#1 -45378665#0 -45378665#0.39 -45378665#0.75 -896786335#14 -896786335#14.27 -896786335#13 -896786335#12 -896786335#12.15 -896786335#11 -896786335#10 -896786335#10.38 -951976010#1 -951976011#0 896786321#2 -896786320#3 -896786320#3.5 -896786320#1 -896786320#0 -896786316#3 -896786316#2 -896786316#1 -896786316#1.33 -896786314 -951930663#1 -951930663#0 -877395784#11 -877395784#11.58 951946825#0 951946825#1 -951946816#4 951946844 877399011#1 951946810#2 -896786337#14 -896786337#14.40 -896786337#14.111 -952365020 -952365021 -951878231#2 -951951643#6 -951951643#5 -951951643#4 -951951643#3 -951951643#2 876509484#2 -951951642#1 -951951642#0 -951878263#5 -951878269#15 -951891772#2 -951891774 951891771#2 951878270#2 877401978#0 877401978#1 951878266#0"/>
</vehicle>
<vehicle id = "veh3" type= "veh_passenger" depart="3605" >
<route edges =" -45342801#4 -45342801#3 -45342801#2 -45342801#1 -45342801#0 45342798#2 45342798#3 45342798#4 45342818#0 -45342817#2 -45342817#1 45342816#0 45342816#1 45342814#3 -45342803#5 -44740885#8 -45342841 45342802#2 -45342803#1 -45342803#0 -45342843#2 951417477 44740957#1 44740957#2 44740957#4 -671399051#1 -671399051#0 -44740942#1 -44740942#0 974189220#5 902433296 44740967#0 -44740929#6 -44740929#5 -951438760#1 -951438760#0 -313316091#19 -313316091#18 -313316091#18.26 -313316091#17 -313316091#16 -313316091#14 -313316091#14.20 -671761561 -45378689#4 -45378690#1 -45378690#0 -45378690#0.32 -313316091#11 -313316091#10 -313316091#10.31 -313316091#8 -313316091#8.29 -313316091#6 45378684#0 45378684#0.22 45378684#0.71 -671178935 -45378685#1 -45378685#0 -45378685#0.42 -313316091#4 -313316091#4.67 -313316091#2 -313316091#2.44 -44740931#1 -44740919#0 44740920#8 -313316091#0 -313316091#0.27 -313316091#0.72 -313316091#0.80 45340579#18 45340579#18.164 45340579#19 45340579#19.12 45340579#19.84 909019791#0 -909019790#1 -909019789#2 -909019789#1 44740916#7 44740916#8 44740916#9 44740916#9.64 -909019783 -909019783.98 -971495601#3 -971495601#1 -971495601#0 -313316086 -44739144#26 -44739144#24 909024272#0 909024272#0.29 909024273#0 909024273#0.33 909024273#1 -909024277#3 -909024277#2 -909024277#2.4 -909024277#2.29 -909024277#1 -909024277#1.20 -909024277#0 909024279#4 909024279#4.20 -909024280#1 -909024280#1.18 909024278#1 909024278#1.42 896786294#7 896786294#7.18 896786294#8 896786294#10 896786294#11 896786294#11.40 -909024262#1 -909024262#1.12 -909024262#0 -702673217#0 -44739144#18 -877398366#21 952002225#0 909024265#3 -44739144#13 -44740913#5 903953323#0 903953323#1 909778559#0 672815156#0 44740912#7 -904286388#7 -904286388#7.24 -904286388#6 -904286388#6.28 904371479#0 904371479#0.10 904371479#0.23 904371479#0.35 904371476 904371475#1 -904371474#3 -904371480 -904371480.19 -904371480.46 -904371480.53 -904371480.60 -904371480.68 -904371480.92 -904286388#3 -904286388#3.17 -904371482#1 -904371482#1.50 -904371482#1.65 -904371482#0 -904371482#0.24 -904371482#0.73 -671191683#5 -671191683#5.23 -671191683#5.47 -671191683#5.61 -671191683#5.97 -904371473#4 -904286388#0 904286386#7 951973455 951973456#1 951973451#1 951973451#3 951973452#3 -904371488#8 -904371488#8.6 -904371488#8.17 -904371488#7 -904371488#7.3 -904371488#7.6 -904371488#6 -904371488#5 -904371488#4 -904371488#2 -904371488#2.8 -904371488#2.11 -904371488#2.18 -904371488#1 951992356 951992356.11 951992356.20 951992356.29 896786290#0 -904286381#6 -904286381#4 -904286372#1 904286375#1 904286373#0 -951975997 671191680#9 -904286375#3 904286374 904286381#2 904286379 -904286383#3 -904286383#3.28 -904286383#2 896786290#2 -877396860#13 904286380#2 904286380#3 904286380#3.65 877398366#15 877398366#15.16 896786277#0 896786278#0 896786278#0.39 896786278#1 896786267#2 -904286382#4 -904286382#4.34 -904286382#3 -904286382#2 -877396860#11 -877396860#10 -877396860#9 -877396860#9.4 -877396860#8 -877396860#7 -877396860#6 904371465#0 904371465#1 904371465#2 904371464 896786325#1 -896786328#1 -896786328#0 -896786328#0.177 -951951638#10 -951951638#10.18 -951951638#9 951973426#2 -952002224#6 -952002224#5 -952002224#5.5 -952002224#4 -952002224#4.27 -952002224#3 -952002224#3.30 -952002224#3.48 -952002224#3.80 -952002224#2 -952002224#2.36 -952002224#1 896786337#4 896786337#5 896786337#5.11 896786337#6 896786337#7 896786337#8 896786337#8.8 -951887683 -951887684 -951887682#6 -951887682#5 951887686#0 -951887688#2 951887690 -951887700#17 -951887700#17.17 -951887700#16 -951887687#1 -951887687#1.51 -951887687#1.58 -951887687#0 -951887687#0.5 -951887682#3 -951887682#2 -951887682#2.37 -951887682#1 -951887682#1.2 -951887682#1.5 -951887682#0 -951961243 -951961242#0 -951961240#1 -951961245 951891772#0 -951891773 -951891771#0"/>
</vehicle>
<vehicle id = "veh4" type= "veh_passenger" depart="3605" >
<route edges =" 45342801#5 45342801#5.32 902433317#3 951421968#0 951421968#1 951421968#1.20 951421968#2 951421968#2.9 -45344271#34 -45344271#32 951368595#0 951368595#1 951368595#1.17 951368595#1.34 -951368596 45342799#27 45342799#27.15 45342799#27.20 45342799#27.25 45342799#27.36 972507120#0 -903341083#3 -903341083#2 -903341083#1 -951368605#2 -951368605#1 -951368605#0 45342811#1 45342811#2 45342811#2.66 -45344273#22 -45344273#22.6 -45344273#22.18 -45344273#22.35 -45344273#21 -45344273#21.28 -45344273#19 -45344273#18 -45344273#18.17 -45344273#17 -45344273#17.20 -45344273#17.31 -951404487 -951404487.23 -951404487.30 -951404487.34 -951404487.41 -951404487.54 -951404487.65 -951404487.81 -951404487.106 -951404487.117 -951404487.125 -951404487.130 -951404487.140 -951404487.150 -951404487.157 897252876#8 902433295#2 902433295#3 902433295#4 902433295#4.36 902433295#4.49 902433295#5 -45344326#0 -45344326#0.20 -45344326#0.39 45344330#1 45344333#1 45344333#2 45344331#2 45344331#3 45344331#4 45344320#4 -897172091#13 -897172091#12 -897172091#10 -897172091#9 -897172091#8 699875133 699875130#1 45344297#0 45344297#0.22 45344335#0 45344335#0.43 -950235689#2 950400194#2 699875131#3 -950400192#1 -950400192#0 -950400193#0 -950400195#0 700254525#6 700254525#8 700254525#9 700254525#11 -950400191 -950400191.5 -950400191.10 -950400191.16 -950400191.25 950235691#1 -45344320#7 -45344320#7.6 -45344320#7.12 -45344320#7.25 -45344320#7.29 -45344320#7.33 -45344320#7.37 -45344320#7.54 45344335#8 -45344336#7 -45344336#7.6 -45344336#6 -45344336#6.35 -45344336#5 950235700#0 950235694#0 -950235695#2 950235702 950732875#1 950235694#2 950235692#1 950235692#2 950235692#3 -950235699#3 950235701 -950238179#1 -950755158 -950755158.48 -950755158.54 -950755158.58 -950755158.63 950238182#0 -950238181#1 950780324#0 950780324#0.32 -950238184#1 950238180#4 950238180#4.24 950238180#5 950238180#5.14 -950238178#0 897252880#9 -45344273#40 -950235700#3 -950235700#2 950235697#4 950235697#4.10 950235697#4.13 950235697#4.16 950235697#4.19 950235697#4.22 45344272#2 45344272#2.46 -45344336#3 45344283#4 45344283#5 -950553582#2 -950553582#2.27 950553580#0 950553579 950553579.70 950553579.75 950553579.82 -700278833#5 -700278833#5.31 -700278833#5.45 950318421#0 950318421#0.10 950318421#0.18 950318421#0.29 950318421#0.39 950318421#1 950233988#2 950233988#2.43 950233988#2.55 -700278833#3 700278832#0 700278832#0.21 700278832#1 -950392123#2 -950392123#2.17 -950392123#2.22 -950392123#2.28 -950390889#3 -950390889#3.20 -950390889#3.34 -950390889#3.45 950392121#0 950392121#0.13 950392121#0.18 950392121#0.24 950392121#0.35 950392121#0.44 950392121#0.54 950392118 950392118.21 950392118.25 950392118.27 950392118.39 950392118.42 950392118.45 950392118.47 -950392120#0 -950392120#0.3 -950392120#0.25 -950392120#0.41 -950392120#0.51 -950392120#0.60 -950392120#0.69 -950390889#0 -950390889#0.4 -950390889#0.19 950390893#3 950241224#2 950241224#3 700278832#5 700278832#5.53 45344280#12 45344280#13 950238193#0 950553572 45344284#1 -950553573 950238193#2 -45344336#0 45344284#3 -950238192#4 -950238192#3 950241233#2 950394093#0 950394093#2 950394093#2.2 950241869#4 950238192#1 950238192#1.16 -950394094 -950394094.12 -950394094.16 -950394094.20 -950394094.25 -950394094.28 -950394094.30 -950241229#0 -950241233#0 -45344280#9 -45344280#9.5 -45344280#8 -45344280#8.26 -45344280#7 -45344280#6 -45344280#6.17 -45344280#4 -950241222#4 -950241222#3 -951132943 -951132943.7 -950241220#1 -950389244#1 -950389244#1.19 -950389244#1.34 -950389244#0 -950389244#0.11 897252879#14 897252879#14.50 897252879#15 897252879#17 897252879#18 897252879#18.162 897252879#19 897252879#19.29 897252879#20 897252879#21 897252879#21.85 897252879#22 897252879#23 896892972 896892973 896892973.27 896892973.31 -896786335#50 -896892981#13 -896892981#13.5 -896892981#13.13 -951349911#1 -951349910#1 -951349910#1.29 951354767 951354780 951354780.16 951354780.26 -896786335#47 -896786335#46 -896786335#44 -896786335#44.9 -896786335#44.71 -896786335#43 -896786335#42 -896786335#42.22 896892983#0 896892983#0.10 896892983#1 896892983#1.19 -951421976 896892982#2 -896786335#39 -896786335#39.27 -896786335#37 -896786335#36 -896786335#34 -896786335#33 -896786335#32 -896786335#32.17 951355291 951355291.25 951355291.31 951355291.36 951355291.46 951355291.50 951355291.55 951355291.60 951355291.65 -908869252#1 908869240#0 908869240#0.46 908869240#0.50 908869240#0.53 -908869241#0 -908869241#0.18 -908869241#0.81 -45378649#5 -45378649#5.24 -45378649#5.57 -45378649#5.68 -45378649#3 -45378649#3.8 -896786265#8 -896786265#7 -896786265#7.11 951354765#0 951354763#1 951354763#2 -951358823 -951358823.62 -951358823.69 -951358823.74 -951358823.78 -896786335#26 -951995494#1 -951995494#0 951354763#4 951354763#5 951995492#1 -896786265#0 909024253#0 951995490#0 909024242 -896786293#6 909024251 909024251.27 909024250#4 909024250#5 909024250#6 909024239#0 909024239#1 909024239#1.17 -909024237#1 -909024237#1.34 -909024237#1.71 -909024237#1.74 -909024237#1.78 -909024237#1.82 877398366#1 877398366#1.15 877398366#2 877398366#2.36 877398366#3 -951995475#3 -951995475#2 896786292#0 896786292#0.10 896786291#0 896786291#0.19 -896786288#0 -896786288#0.20 -896786288#0.42 -877398520#0 -877398520#0.16 -904371459 -904371459.17 -904371459.33 904371460#2 904371460#2.34 904371460#4 904371460#4.17 904371460#4.32 904371460#5 -877396860#3 -951975994 -896786324#1 -896786324#0 -896786324#0.19 -896786324#0.132 -896786324#0.177 951951639#0 951951639#1 951951639#3 951951639#4 951946801 951946795#3 951946795#4 951946795#6 951946795#7 951946795#9 951946795#10 951946795#11 951946795#11.34 951946795#11.40 951946795#11.45 896786337#10 896786337#10.21 -951887700#20 -951887700#19 -671756019#4 -951961235 951961234#1 -951878265#2 -951878265#1 -951878266#5 -951878266#5.22 -951878266#5.29 -951878266#5.37 -951878266#4 -951878266#4.37 -951878266#2 -951878266#1 -951878266#1.39 -951878266#1.47"/>
</vehicle>
<vehicle id = "veh5" type= "veh_passenger" depart="3605" >
<route edges =" 951370989 951370989.40 951370989.47 951370989.53 951370989.56 951370989.62 951370989.64 951370989.67 -902433320#1 -902433320#0 902433321#2 -45342799#20 -45342797#4 -45342797#3 -45342797#2 -45342797#1 45342835#0 45342835#1 45342835#2 45342809#2 45342809#3 45342809#4 45342809#5 -45342836#2 -951441769 951370985#1 45342809#7 45342809#8 45342809#9 45342809#10 45342809#10.44 45342809#11 -45342831#3 -45342831#2 951421967 951417480#1 -951417482#1 -951417482#0 45342805#1 45342805#1.19 951417479 -45342809#15 45342824#0 45342833#3 -951366786 45342824#3 45342823#2 45342828#1 45342828#1.100 -45344273#6 -45344273#6.40 -45344273#6.59 -951384598#3 -951384598#2 -951404491 -951404491.16 -951404491.28 -951404491.40 -951404491.51 -951384599#0 700249213#9 700249213#10 -951404492 -951417468 -951417468.27 -951417468.30 -951417468.32 -951417468.34 45342808#8 45342808#9 45342808#10 45342808#11 45342808#11.24 951417471 951417471.18 951417471.38 951370965#1 951370965#1.28 951370965#1.49 -45344314#0 897252864#3 -897252871 -897252870 -45344310#2 -45344310#1 -45344310#0 -45344310#0.10 -45344310#0.18 -45344310#0.30 -45344310#0.41 -45344310#0.52 971495602#8 971495602#8.24 971495602#8.86 45340579#6 -908560887#8 -908560887#8.9 -908560887#8.22 -908560887#8.29 -908560887#8.34 -908560887#8.39 -908560887#8.43 -908560887#8.49 -908560887#8.57 -908560887#8.62 -908560887#8.67 -908560887#8.71 -951404467#1 -951404467#1.22 -951404467#1.27 -951404467#1.32 -951404467#1.35 -951435496#1 -951435496#1.16 -951435496#1.17 -951435496#1.18 -951435496#1.19 -951435496#1.20 -951435496#1.22 -951435496#1.27 -951435496#0 -951435494 -951435494.8 -951435494.19 -951435494.25 -951435494.33 -951435494.43 -951435494.50 -951435494.55 -951435494.60 -951435494.65 313316104#5 313316104#5.24 313316104#5.44 313316104#5.58 -45378650#5 -45378650#5.11 45378646#0 45378646#0.20 45378646#1 -908846596#4 -908846596#3 908846595#2 908846595#2.72 -45378650#2 -45378650#2.42 -45378650#2.62 -45378650#1 -908846596#1 -908846596#0 -908846596#0.31 908560901#7 908560901#8 908560901#8.23 908560901#8.56 -313316104#0 -313316082 -45378649#12 896786247#0 896786247#0.38 908869233 -908869244#0 -908869250#1 -908869250#0 -908869250#0.11 -908869250#0.41 -45378649#10 -45378649#10.20 -45378649#9 -45378649#9.7 -45378649#7 -45378649#7.4 951354759#0 951354759#0.23 951354759#0.27 951354759#0.32 951354759#0.43 951354759#1 951354759#1.10 951355298#0 951355298#0.23 951355297#2 951355297#2.63 896786262#6 896786262#6.9 896786296#2 896786296#2.35 -896786254#1 -896786254#1.26 951355294#1 951355294#1.19 951355294#1.22 951355294#1.23 951355294#1.24 951355294#1.25 951355294#1.27 951355294#1.28 951355294#1.31 951355294#1.41 951355294#1.42 951355294#1.43 951355294#1.44 951355294#1.45 951355294#1.47 -896786258#2 -896786258#2.22 -896786256 -896786256.31 -896786256.68 -896786256.122 -896786260#4 -896786260#4.11 896786257#1 896786266#5 -896786260#0 -896786260#0.52 896786257#4 909024248 909024248.50 -45378665#3 -45378665#3.29 -45378665#3.50 -45378665#2 -45378665#2.36 -45378665#1 -45378665#0 -45378665#0.39 -45378665#0.75 -896786335#14 -896786335#14.27 -896786335#13 -951983587#9 -951983587#8 -951983588#1 -951983588#0 -951983586#0 -896786303#0 896786311#13 896786311#13.28 -896786335#10 -896786335#10.38 -951976010#1 -951976011#0 -896786321#1 -896786321#1.3 -951976012 -951976012.34 -951976012.37 -951976012.40 -951976012.44 -896786320#3 -896786320#3.5 -896786320#1 -896786320#0 -896786315#0 951976013#0 951930665#0 951930665#1 951930665#2 951930664#4 951930664#5 896786316#2 896786317#0 896786317#1 896786317#1.17 896786319#5 896786319#5.19 896786316#0 -896786314 -951930663#1 -951930663#0 877395784#12 877395784#13 877395784#13.21 951946817#0 951946817#1 951946817#2 951946817#3 951946817#4 951946817#5 951946833#4 951975993 951951631#1 951951635#2 951946818#2 -951946819#1 -951946819#0 -951946816#5 -951946816#5.8 -951946816#5.11 -951946816#5.14 -951946816#5.18 -951946816#4 -951946816#2 -951946816#1 -951946816#0 -951946815#4 951946828 -951946787#4 -951946787#3 -951946787#2 -951946814#2 -951946814#0 -951946812#1 -951946813 951946810#1 951946810#2 -896786337#14 -896786337#14.40 -896786337#14.111 -952365020 -952365021 -951878231#2 -951951643#6 -951951643#5 951868611#0 -951878231#0 951951645 -951951643#3 -951951643#2 -951951643#1 951951648#0 951951648#1 -951951642#0 -951878263#5 -951878269#15 -951891772#2 -951891774 951891771#2 951930613 -951878269#9 951891767 951891769#0 951891769#0.18 951891769#0.24 951891769#0.29 951891769#0.46 951891769#0.50 -951891768 -950288028#1 -950288028#0 951878269#5 951878269#6 -951891764#4 -951887656#2 951891765#1 -951887654#2 -951878272#1 -951887656#0 -951887655#3 -951887655#2 951887657 951878272#4 -951887658 -951887655#0 -904196454#0 700825962#5 700825962#5.39 951891762 -700825961#6 -700825961#6.9 951887666#0 951887666#1 951887666#2 951887664#1 -904196454#4 951887661#0 951887661#1 951887661#2 951887661#3 951878266#0"/>
</vehicle>
<vehicle id = "veh6" type= "veh_passenger" depart="7210" >
<route edges =" -45342801#4 45342799#23 672813677#0 672813677#0.22 672813677#0.51 672813677#1 672813677#1.14 672813677#1.27 672813677#2 672813677#4 672813677#4.8 -903341082#0 -903341082#0.45 -45342801#2 -45342801#1 -45342801#0 45342798#2 -45342809#3 -45342834#2 -45342834#1 -45342834#0 44740902#8 -45342798#6 45342813#0 45342813#1 951370984#2 44740902#10 44740902#10.9 44740902#11 44740902#12 44740902#13 44740902#14 44740902#14.81 44740902#14.94 -874839172#0 -44740943 -313316091#20 951438760#0 951438760#1 -44740929#4 -44740929#3 -44740929#2 951438762 951438763#1 951438763#1.5 44740967#2 44740967#3 44740967#4 -44740922#3 44740953#0 44740953#2 44740940#0 44740945#0 44740946#0 44740946#1 -313316091#8 -313316091#8.29 -44739167#15 -44739167#15.17 44740949#0 -44740951#1 -44740952 44740953#7 44740949#2 -44740919#1 -44740919#0 -951358792 -951358792.26 -951358792.42 -951358792.53 -951358792.66 896892969#18 -971495601#9 -971495601#9.28 44740934#0 -668599375#2 -668599375#2.17 -668599375#1 -668599375#1.9 -668599375#0 44740916#11 -971495601#6 -971495601#5 -971495601#3 -951346855#1 -951346855#1.22 -951346855#1.42 -951346855#1.57 -951346855#0 -951346855#0.7 -951346855#0.23 -908560900#2 -908560900#1 -908560901#21 -908560901#21.18 -908560901#21.74 -908560901#20 -908560901#20.10 -908560901#20.61 -908560901#20.115 -908560901#19 -908560901#19.77 -908560901#19.104 -896786299#0 -896786298 -45378665#19 -45378665#18 -951346845 -951346845.45 -951346845.46 -951346845.48 -951346845.49 -951346845.51 -951346845.52 -951346845.76 -951346845.78 -951346845.80 -951346845.82 -951346845.84 -951346845.103 -951346845.133 -951346845.138 -951346845.141 -951346845.144 -951346845.148 896786295#3 896786295#3.23 896786295#4 896786295#5 -896786282#4 -896786282#4.21 -896786282#4.92 896786281#0 896786280#1 896786280#2 896786280#3 896786295#8 896786295#8.21 896786295#8.23 909024279#0 909024279#0.32 909024279#1 909024279#1.32 909024279#1.36 909024279#1.38 909024279#1.41 909024279#1.43 -909024276#2 -909024276#1 951433468 951433468.11 951433468.23 951433468.31 951433468.39 951433468.48 951433468.57 896786296#17 896786296#17.29 896786296#17.96 896786296#17.102 896786296#18 896786296#18.4 896786296#18.17 -903953334#9 -903953334#9.24 -903953334#9.50 -903953334#9.58 -903953327 -903953327.7 -903953327.18 -903953327.71 -903953326#0 -44739144#22 -44739144#21 -951346849 -909778546#0 -903953325#2 -903953325#2.18 -903953325#1 903953324#0 903953324#1 903953324#1.22 -44739144#18 -44739144#16 -44739144#15 671960104#0 671960104#1 671960102 -671960101#10 44740913#4 903953323#0 -909778560#0 -909778560#0.13 44739144#12 -877396860#22 -952002225#1 -952002225#0 -877398366#20 -909024264#1 -909024264#0 -909024265#1 -909024265#0 896786289#1 896786289#1.39 896786289#2 702673217#3 702673217#4 702673217#5 -896786294#0 -896786294#0.13 -877398366#16 -877398366#15 -877398366#15.29 -877398366#14 -877398366#14.72 -904286382#4 -904286382#4.34 -904286376 -904286377#0 904286378#1 -904286382#2 -877396860#11 -671191680#13 904286381#0 904286381#2 904286379 -904286383#3 -904286383#3.28 -904286380#0 904286381#6 -904371470#2 904286384#1 904286384#1.16 -904286383#0 904371474#0 904371474#0.21 904371473#0 904371473#1 904371473#1.24 904371469 904286386#6 904286386#7 671191683#3 -904286387#3 -904286387#3.46 -904286387#3.53 951973456#0 951973456#1 951973451#1 -951992361 -904371488#6 -904371488#5 -904371488#4 904371486#0 904371486#1 904371487#0 904371487#1 904371487#1.29 904286385#8 904286385#9 904286385#10 904286375#0 904286375#1 904286373#0 -951975997 -671191680#8 -671191680#6 -896786326#1 -896786327#1 -896786327#1.48 -896786327#1.55 -896786327#1.60 -896786327#1.64 -896786327#1.68 -896786327#1.74 -896786327#1.124 -896786327#1.170 -896786327#1.205 -896786327#1.211 -896786327#0 877395784#22 877395784#22.56 904371492#0 904371492#0.68 904371492#2 -904371491 -904286385#2 -904371493#4 -671191681#2 -951973437#1 -951973438#1 -951973438#1.17 -951973438#1.20 -951973438#1.25 -951973438#1.31 -951973439 951973436#2 -671191681#0 -904286385#0 -952002224#7 -952002224#7.17 -952002224#7.71 -951973426#2 -951951638#8 -951951638#7 951946800#0 951951639#7 -951973430#1 -951951638#4 951946798#1 951951639#10 951951639#11 -952000398 -951951638#2 -951946794#1 951951639#14 951951639#15 896786337#6 896786337#7 896786337#8 896786337#8.8 -951887683 -951887684 -951887682#6 -951887682#5 -951887682#4 -951887682#3 -951887682#2 -951887682#2.37 -951887682#1 -951887682#1.2 -951887682#1.5 -951887682#0 -951887700#14 -951961240#3 -951961240#1 -951961245 951891772#0 -951891773 -951891771#0"/>
</vehicle>
<vehicle id = "veh7" type= "veh_passenger" depart="7210" >
<route edges =" 45342801#5 45342801#5.32 902433317#3 902433317#4 902433317#6 -951368597 45342799#26 951368596 902433317#8 902433317#8.29 902433317#9 951368594#0 951368594#1 951368594#2 45342812#0 45342812#1 45342811#2 45342811#2.66 45344273#23 45344273#23.11 -951379890#1 -951379890#1.37 -951379890#1.47 -951379890#0 -951379890#0.11 -951379890#0.26 -951379890#0.32 -951379890#0.35 -951379890#0.37 -951379890#0.41 -951379890#0.82 -951379890#0.84 -951379890#0.86 -951379890#0.88 -951379890#0.89 -951379890#0.91 -951379890#0.93 45344320#1 45344320#2 45344320#3 -45344331#4 -45344331#3 -45344331#2 -45344331#1 -45344331#0 45344326#3 699875133 -699875130#0 -699875130#0.26 -699875131#0 897172091#9 897172091#10 903341090 -45344335#4 -45344335#3 -45344335#2 -45344335#1 -45344335#0 -45344335#0.49 -950400195#2 -950400195#2.10 950400194#0 950400194#1 -950235689#1 950400192#1 699875131#4 700254525#9 700254525#11 700254525#12 700254525#12.12 950235692#0 950235692#1 -950455053 -950235703#0 -950235703#0.13 -950235703#0.32 -950235703#0.55 -950235703#0.71 -950235703#0.86 -950235703#0.97 -950235703#0.108 -950235699#4 950235692#4 45344273#36 45344273#36.18 -950235701 -950732876 950235697#2 -950235695#0 -950235699#0 -950235700#2 -950235700#1 -950235700#0 -45344336#4 -45344336#3 -45344336#2 -45344336#1 -950238193#2 -950238193#1 950553572 45344284#1 45344284#2 45344284#3 -950238192#4 45344281#1 -950241866#8 -950241233#3 950394093#0 -950394090#2 -950394090#2.4 -950394090#2.9 -950241865#1 -950241866#5 950241869#0 950241869#0.6 950241869#0.16 950241869#1 950241869#1.29 950241869#2 950241869#2.5 950241869#3 950241869#3.5 950241869#3.10 950241869#3.17 950241869#4 950238192#1 950238192#1.16 950238192#2 950238192#2.2 950238192#2.5 -950241233#1 -950241233#0 45344280#11 45344280#11.11 45344280#11.23 45344280#12 45344280#13 45344280#14 45344280#14.13 45344280#15 45344283#5 -950553582#2 -950553582#2.27 -950553582#1 -950553582#1.2 -950553582#1.5 -950553582#1.66 -950553582#1.76 -950553582#1.84 -950553582#1.90 -950553582#1.96 -950553582#1.103 -950553582#1.114 -950553582#1.120 -950553582#0 -950553582#0.6 -950233989#0 45344283#7 45344283#7.36 45344283#8 -950233988#0 45344272#5 950389247#0 950389247#0.52 950389247#0.95 950389247#0.101 950389247#0.109 -951441775 -951441775.15 -951441775.28 -951441775.39 -951441775.47 -951441775.60 951381432#1 951381432#1.2 951381432#1.5 951381432#1.8 -897252850#3 -897252850#2 -897252850#2.11 -897252850#2.29 -950389247#2 -950389247#2.20 -950389247#2.28 -950389246 -950389246.5 -950389246.12 -950389246.18 950389249#3 950389249#3.3 950389249#3.6 950389249#3.24 950389249#4 950389249#4.2 950389249#4.6 -897252850#0 -897252852#1 -897252852#1.36 -897252852#0 45344272#9 45344272#9.28 45344272#10 45344272#10.38 45344272#11 45344272#11.35 45344272#12 45344272#13 45344272#13.4 45344272#13.35 45344298 896892974 971495602#11 971495602#12 971495602#12.26 971495602#12.77 951442813 951442812#0 -896786335#50 -896892981#13 -896892981#13.5 -896892981#13.13 -896892981#12 -896892981#10 -896892981#10.8 951354779 951354779.19 951354779.26 951354779.35 951354779.44 -896786335#46 -896786335#44 -896786335#44.9 -896786335#44.71 -896786335#43 -896786335#42 -896786335#42.22 896892977#0 896892977#0.14 896892977#1 896892977#1.45 896892977#1.56 -908869250#4 -908869250#4.38 -908869237 -908869237.57 -908869237.85 -908869237.97 -896786335#40 -896786335#39 -896786335#39.27 -896786335#37 -896786335#36 -951349917#1 -951349917#1.14 -951349917#1.29 -951349917#1.41 -951349917#1.59 -951349918 -951354772#1 -951354772#1.39 -951354772#1.50 -951354772#1.59 -951354772#0 -951354772#0.6 -951355289#1 -951355289#0 -896893028#1 -896893028#1.14 896893014#0 896893014#0.49 896893015#1 896893015#1.26 -896893016#1 896893017#0 -896893018#1 -896893018#1.27 -896893018#0 -877388728#13 -877388728#13.55 -877388728#11 -896893005#1 -951995485 896893004#2 896893004#3 896893004#3.24 896893004#4 896893004#5 896786335#24 896786335#26 896786335#27 896786335#27.8 951358824#0 951358824#0.11 951358824#0.16 951358824#0.21 951358824#0.29 951358824#0.41 951358824#0.47 951358824#0.52 -951354763#1 -951354763#0 45378649#2 45378649#2.17 -896786265#8 -896786265#7 -896786265#7.11 -896786265#6 -896786265#6.26 -896786265#5 -896786265#4 -896786265#4.59 -896786265#2 -896786265#0 909024253#0 909024253#1 909024253#1.45 -896786293#7 -909024242 951995490#1 951995490#1.10 951995490#1.14 951995490#1.17 951995490#1.20 -909024250#1 -909024250#0 896786266#12 896786266#13 896786266#13.14 -896786335#21 -896786335#21.41 -896786335#19 -896786335#18 -896786335#17 -896786335#17.2 909024245 909024245.31 909024245.51 909024245.75 909024250#5 909024250#6 909024239#0 909024239#1 909024239#1.17 909024239#2 909024239#2.40 -951983585 877396860#3 -896786328#3 -896786328#3.70 904371467#0 904371464 896786325#1 896786325#2 -896786324#1 -896786324#0 -896786324#0.19 -896786324#0.132 -896786324#0.177 951951639#0 951951639#1 951951639#3 951951639#4 951946801 951946795#3 951946795#4 951946795#6 951946795#7 951946795#9 951946795#10 951946795#11 951946795#11.34 951946795#11.40 951946795#11.45 896786337#10 896786337#10.21 -951887700#20 -951887700#19 -671756019#4 -671756019#3 951961253 951961253.63 951961253.68 951961253.73 951961233#1 -951878265#2 951878263#1 951878263#1.39 951878263#1.46 951878263#1.53 951878263#1.72 951878263#1.75 951878263#2 951878263#2.2 -951878266#4 -951878266#4.37 -951878266#2 -951878266#1 -951878266#1.39 -951878266#1.47"/>
</vehicle>
<vehicle id = "veh8" type= "veh_passenger" depart="7210" >
<route edges =" 951370989 951370989.40 951370989.47 951370989.53 951370989.56 951370989.62 951370989.64 951370989.67 -902433320#1 -902433320#0 902433321#2 45342799#21 45342809#0 951368600#0 -951368603#1 -951368603#0 45342835#2 45342809#2 45342809#3 45342798#3 -45342837 -45342836#0 45342818#2 45342818#3 -45342814#4 -45342803#5 -45342803#4 -45342803#3 45342820#0 45342820#1 -45342822#1 -45342822#0 -45342831#2 -951417482#2 -951417482#1 -951417481 45342805#3 45342805#4 -45342809#12 -45342809#11 -45342809#10 -45342809#10.53 -45342809#9 44740885#10 -45342826#1 -45342826#0 45342825#1 45342825#2 45342828#0 45342828#1 45342828#1.100 -951384596#1 -951384596#1.24 -951384596#1.31 -951384596#1.36 -951384596#1.46 -951384596#1.54 -951384596#1.60 -951384596#1.72 -951384596#1.107 -951417467 -951417467.14 -951417467.15 -951417467.17 -951417467.18 -951417467.21 -951417467.23 -951417467.24 -951417467.25 -951404491 -951404491.16 -951404491.28 -951404491.40 -951404491.51 -951384599#0 700249213#9 700249212#0 700249212#1 700249212#3 45342808#9 45342808#10 45342808#11 45342808#11.24 45342808#12 -897252871 -897252870 -45344310#2 -45378639#12 -45378639#12.97 -951404475 -951404475.33 -951404475.43 -951404484#0 -951404484#0.3 -951404484#0.6 -951404484#0.11 -951404484#0.38 -45344310#0 -45344310#0.10 -45344310#0.18 -45344310#0.30 -45344310#0.41 -45344310#0.52 971495602#8 971495602#8.24 971495602#8.86 -313316104#6 -45378650#5 -45378650#5.11 -45378650#4 45378645#0 45378645#0.44 -908846596#3 -908846596#2 45378650#1 -908846593 -908846593.73 908560901#8 908560901#8.23 908560901#8.56 -313316104#0 -313316082 -45378649#12 -45378649#11 -45378649#11.22 -45378649#10 -45378649#10.20 -951355292 951355298#2 951355298#2.3 951355298#2.9 951355298#2.31 951355298#2.35 951355298#2.38 951355298#2.40 896786296#1 896786296#1.36 -896786262#6 -896786262#6.15 -896786262#5 -896786262#4 -896786262#4.31 -896786262#3 -896786262#3.9 -896786262#1 -896786262#0 -896786262#0.33 -896786262#0.115 896786260#3 896786257#1 896786266#5 -896786260#0 -896786260#0.52 896786257#4 909024248 909024248.50 45378665#5 45378665#5.9 45378665#7 45378665#7.25 45378665#7.48 45378665#8 -896786283#4 -896786283#4.15 -896786283#4.56 -896786283#3 -896786283#3.11 -896786283#2 -896786283#1 -896786283#1.4 -896786283#1.24 -896786283#0 -896786283#0.23 877396033#4 877396033#4.19 896786286#4 896786286#4.10 896786286#4.60 -909024289#3 -909024289#3.21 -909024289#2 -909024289#1 -909024289#1.25 -909024289#1.69 -909024289#1.74 -909024289#1.90 -909024289#1.103 -909024289#1.130 -909024289#0 -909024289#0.2 -909024289#0.5 -909024289#0.10 896786293#2 896786293#2.8 896786293#2.28 896786293#2.36 896786293#2.45 896786293#2.48 896786293#2.52 -45378665#2 -45378665#2.36 -45378665#1 -45378665#0 -45378665#0.39 -45378665#0.75 -896786335#14 -896786335#14.27 -896786335#13 877398366#0 877398366#0.11 -909024237#0 -951983583#0 -951983583#0.24 -951983583#0.28 -951983583#0.32 -951983583#0.38 -877396860#0 -877396860#0.8 -877396860#0.28 -896786335#10 -896786335#10.38 -896786322 -896786322.14 -896786322.21 -896786323#1 896786325#4 896786325#4.12 896786335#6 951976007 951976006#2 -951976009#0 951930673#0 -951930675 877396172#5 -896786320#0 -896786316#3 -896786316#2 -951930664#5 -877396172#0 -877396172#0.15 -896786313#2 -896786313#2.55 -951930663#1 -951930663#0 877395784#12 -951946824 951946816#9 951946816#10 951946817#1 951946817#2 -951951641 951946833#3 -951946817#5 -951951636 951951635#2 951946818#2 951946821#0 951946821#0.45 951946821#0.47 951946821#0.51 951946821#1 951946821#2 951946820#1 -951946816#6 -951946816#6.36 -951946816#6.40 -951946816#6.43 -951946816#6.46 -951946816#5 -951946816#5.8 -951946816#5.11 -951946816#5.14 -951946816#5.18 -951946816#4 951946844 877399011#1 951946810#2 -896786337#14 -896786337#14.40 -896786337#14.111 -952365020 -952365021 -951878231#2 -951951643#6 -951951643#5 951868611#0 -951878231#0 951951645 -951951643#3 -951951646 -951951642#2 -951951642#1 -951951642#0 -951878263#5 -951878269#15 -951891772#2 -951891774 951891771#2 951878270#2 951878270#3 951878270#4 -951891764#2 -951887654#3 951891765#2 951891765#3 -951917022 951887661#1 951887662 -951887660#2 -951887660#0 877401978#1 951878266#0"/>
</vehicle>
<vehicle id = "veh9" type= "veh_passenger" depart="10815" >
<route edges =" 951370989 951370989.40 951370989.47 951370989.53 951370989.56 951370989.62 951370989.64 951370989.67 -902433320#1 -902433320#0 902433321#2 45342799#21 45342809#0 45342809#1 45342809#2 45342809#3 45342798#3 -45342837 -951441769 951370985#1 45342809#7 45342809#8 -44740885#9 -44740885#9.34 -44740885#8 -45342841 -45342802#1 44740902#13 44740957#4 -671399051#1 -671399051#0 -44740942#1 -44740942#0 974189220#5 902433296 44740967#0 -44740929#6 -44740929#5 -44740929#4 672215965#0 672215965#0.11 672215965#1 -44740922#0 -313316091#16 45378639#0 45378639#0.48 45378639#1 45378639#1.38 45378639#2 45378639#2.25 45378639#2.39 951439125#0 951439125#0.15 951439125#0.23 951439125#0.33 951439125#1 -45378641#0 45378658#2 45378658#3 -45378683#3 -45378683#2 45378655#2 45378655#3 45378655#4 -45378656#1 -45378656#0 -45378656#0.43 -45378656#0.46 -45378656#0.48 -45378656#0.49 -45378656#0.51 -45378656#0.58 -45378656#0.60 -45378656#0.62 -45378656#0.64 45378654#1 45378657#4 -44739163#20 -44740919#1 -44740919#0 -951358792 -951358792.26 -951358792.42 -951358792.53 -951358792.66 896892969#18 45340579#18 45340579#18.164 45340579#19 45340579#19.12 45340579#19.84 909019791#0 -909019790#1 -909019789#2 -909019789#1 44740916#7 44740916#8 44740916#9 44740916#9.64 44740916#11 44740916#12 44740916#13 909019768#0 909019768#0.14 909019768#0.25 909019768#1 909019767#0 909019767#0.42 909019767#1 909019767#1.24 909019767#1.35 -971495601#5 -45378660#1 -45378660#1.21 -45378660#1.52 -45378660#1.88 -45378660#1.126 -908560900#3 -908560900#2 -908560900#1 908560901#22 908560901#22.77 908560901#22.89 -971495601#0 -313316086 -44739144#26 -903953334#9 -903953334#9.24 -903953334#9.50 -903953334#9.58 -903953334#8 -903953334#8.6 -903953334#8.17 -903953334#8.53 -903953325#4 -903953325#3 -903953325#2 -903953325#2.18 -909778547#2 -909778547#0 44739144#20 44739144#21 -896786294#12 -896786294#12.19 -896786294#12.25 -896786294#12.30 -896786294#12.36 -896786294#12.41 -896786294#11 -896786294#11.13 -896786294#10 -896786294#8 -896786294#7 -896786294#7.20 -896786294#6 -896786294#5 -896786294#5.6 -896786294#5.10 -896786294#5.13 -896786294#5.16 -896786294#5.19 -896786294#5.22 -896786294#4 -909024256#1 -909024256#1.22 -909024256#1.80 -909024256#0 -909024256#0.28 896786279#5 -896786278#0 -896786278#0.50 -896786277#0 -877398366#15 -877398366#15.29 -904286380#3 -904286380#3.41 -904286380#2 -904286380#1 -904286380#1.6 -904286380#1.33 -904286380#0 904286381#6 -896786290#0 -904286385#12 -904286385#10 -904286385#9 -904286385#8 -904371487#1 -904371487#1.16 -904371489#2 951973468#0 -904286385#5 -904286385#5.9 -904371490#4 -904371492#6 -904371492#5 -904371492#4 951973476#0 951973476#1 -951973471#2 -951973471#2.11 -951973471#2.14 -951973471#2.17 -951973471#2.20 -904371456#1 -904371456#0 -904371456#0.17 -671191680#0 -671191680#0.38 -671191680#0.44 -671191680#0.48 -671191680#0.53 -671191680#0.58 -671191680#0.63 -671191680#0.76 -896786327#0 -877395784#21 -877395784#21.14 -951951638#10 -951951638#10.18 951973434#1 951951639#3 951973426#1 -951951638#8 -951973432#0 -952002224#5 -952002224#5.5 -952002224#4 -952002224#4.27 951946798#0 -951951638#3 -951951638#2 -951946794#1 -951946794#0 951946792#1 896786337#8 896786337#8.8 896786337#10 896786337#10.21 -951887700#20 -951887700#19 -951887686#1 -951887688#2 -951887688#1 951887689 -951887700#16 -951887700#15 -951961243 -951961242#0 -951961240#1 -951961245 951891772#0 -951891773 -951891771#0"/>
</vehicle>
<vehicle id = "veh10" type= "veh_passenger" depart="10815" >
<route edges =" 45342801#5 45342801#5.32 902433317#3 902433317#4 902433317#6 902433317#7 902433317#8 902433317#8.29 902433317#9 951368594#0 951368594#1 -951369743#1 -951369743#1.33 -951369743#1.39 951421966 -951369746#4 -951369746#4.24 -951369746#4.27 -951369746#4.29 951369745#0 951369745#1 951369745#1.13 951369745#1.18 951369745#2 951369745#2.2 951369745#2.14 951369745#2.20 951369745#2.26 -951369735 -951369735.5 -951369735.10 -951369735.15 -951369735.24 -951369735.30 -951369735.36 -951369740#1 -951369740#1.11 -951369740#1.14 -951369740#1.18 -951369740#1.22 -951369740#1.28 -951369740#1.32 -951369740#1.36 -951369740#1.40 -951369740#1.44 -951369740#1.64 -951369740#0 -951369740#0.4 -951369740#0.11 -45344273#26 897252876#0 897252876#0.16 897252876#0.57 897252876#1 897252876#1.54 897252876#3 897252876#4 897252876#5 897252876#5.34 -45344322#2 -45344322#1 -951404485 45344321#1 897252876#7 897252876#8 902433295#2 902433295#3 902433295#4 902433295#4.36 902433295#4.49 902433295#5 -951404486#1 -951404486#0 45344333#2 45344331#2 45344331#3 45344327#1 897172091#12 -950400189 -950235691#2 -950235691#2.50 -950235691#1 -950235691#0 -950235691#0.4 -950235690#0 -950235690#0.14 -700254525#9 -700254525#8 950235689#0 950235689#1 -950400194#1 -950400194#0 950400195#2 950400195#2.6 -45344297#0 -45344297#0.11 699875130#3 699875130#3.37 -897172091#0 -45344294#6 -45344294#6.9 -45344294#6.25 -45344294#5 -45344294#5.7 -45344294#4 -45344294#4.7 -45344294#4.18 -45344294#3 -45344294#1 -45344294#0 -45344304#5 -45344286#12 -45344286#11 951404497 951404497.20 951404497.26 951404497.33 951404497.38 951404497.43 -897252855#0 -45344287#0 -45344287#0.5 -45344287#0.14 -45344286#7 -702632122#4 -702632122#4.41 -702632122#4.57 -702632122#4.62 -702632122#4.67 -702632122#4.71 -702632122#4.73 -702632122#4.77 -702632123#3 -702632123#2 -702632123#1 -702632123#1.4 -702632123#0 45344272#13 45344272#13.4 45344272#13.35 45344298 896892974 971495602#11 971495602#12 971495602#12.26 971495602#12.77 951442813 951442812#0 -896786335#50 -896892981#13 -896892981#13.5 -896892981#13.13 -896892981#12 -896892981#10 -896892981#10.8 -896892981#9 -896892981#8 -896892981#8.18 -896892981#8.50 -896892981#8.78 -951358829#1 -951358829#1.27 -951358829#1.80 950260764#0 950260764#0.14 950260764#0.20 950260764#0.27 950260764#0.78 950260764#0.85 950260764#0.90 950260764#0.94 950260764#0.98 950260764#1 950260764#2 950260764#3 -950233986#2 951132945#0 951132945#1 951132945#2 -951349907#0 896893025#13 896893025#13.22 -950260765#10 -950260765#8 -951998787#3 876614662#0 876614662#1 -896893025#11 -896893025#11.15 -896893025#10 896892985#0 896892985#0.36 896892985#1 951349909#0 951349909#1 876614662#4 876614662#4.24 876614662#4.82 876614662#4.124 876614662#5 -896892983#7 -896892983#6 -896892983#5 -896892983#5.16 -951354774#1 -951354774#0 -951350966#3 -951354777 951349909#6 951349909#6.57 950233986#4 950233986#4.24 950233986#4.31 950233986#4.37 950233986#4.46 950233986#4.70 950233986#4.73 950233986#4.74 950233986#4.76 951350965 -951350966#1 -951350966#1.7 -951350964 950233986#6 951350967#0 951350967#0.40 951350967#1 951350967#1.12 951350967#2 896892981#3 896892981#4 896892981#5 951349912#0 951349912#0.14 951349912#0.18 951349912#0.25 951349912#0.33 951349912#0.69 951349912#0.72 951349912#0.74 951349912#0.76 951349912#1 951349912#1.12 951349912#1.14 951349912#1.16 951349912#1.19 951358828 951358828.11 951358828.13 951358828.16 951358828.19 951358828.22 951358828.26 951358828.29 951358828.32 951358828.42 951358828.46 951358828.50 951358828.53 951358828.57 -896786247#8 -908869236 -908869236.10 -908869236.25 -908869236.28 -908869236.31 -908869236.34 -908869236.36 -908869236.38 -908869236.41 -908869236.82 -908869236.85 -908869236.89 -908869236.92 -908869236.95 -908869236.97 -908869236.100 -896786335#43 -896786335#42 -896786335#42.22 -896786335#41 -896786335#40 -896786335#39 -896786335#39.27 -908869251 -908869251.5 -908869251.7 -908869251.10 -908869251.12 -908869251.30 -908869251.35 -908869251.40 -908869251.44 -908869251.48 -908869251.66 -908869251.70 -908869251.73 -908869251.76 -908869251.78 896786248#1 896786248#1.30 896786248#1.43 -951349917#1 -951349917#1.14 -951349917#1.29 -951349917#1.41 -951349917#1.59 -951349918 -951354772#1 -951354772#1.39 -951354772#1.50 -951354772#1.59 -951354772#0 -951354772#0.6 -951355289#1 -951355289#0 896893016#0 896893017#0 -896893018#1 -896893018#1.27 -896893018#0 877388728#14 -896786335#24 -896786335#23 -896786335#23.44 -896786335#22 -896893013#7 -896893013#7.29 -896893013#7.87 -896893013#6 -896893013#6.15 -896893013#5 -896893013#5.11 -896893013#5.13 -896893013#3 -896893013#3.24 -896893013#2 896893010 896893010.28 896893010.97 -896893012#5 -896893012#5.11 -896893012#4 -896893012#3 -896893012#2 -896893012#2.9 896786300#3 896786300#3.17 -896786335#14 -896786335#14.27 -896786335#13 -896786335#12 -896786335#12.15 -951983583#1 -951983583#0 -951983583#0.24 -951983583#0.28 -951983583#0.32 -951983583#0.38 -877396860#0 -877396860#0.8 -877396860#0.28 -896786335#10 -896786335#10.38 -951976010#1 -951976010#0 -896786311#8 -896786311#7 -951930673#5 -951930674 -951930674.86 -951930674.89 -951930674.93 -951930674.97 -951930673#1 -951930675 877396172#5 -896786320#0 896786315#2 896786315#4 896786318 896786318.40 -896786319#0 -896786319#0.11 -896786335#4 -896786335#4.18 -896786335#3 -896786335#3.10 -896786335#2 951976001#0 -951976002 -951976000#1 -951976000#0 -896786335#0 -951946803#2 951946816#14 951946816#15 877395784#19 951951639#0 951951639#1 951946802 951946795#2 -951946801 951951639#6 951951639#7 951951639#8 951946799 951946795#6 951946795#7 951946795#9 -951946796#1 951946804 951946804.28 951946804.31 951946804.34 951946804.37 951946795#11 951946795#11.34 951946795#11.40 951946795#11.45 -951887683 -951887684 -951887682#6 951887695#5 671756019#0 671756019#1 671756018 -876509484#8 -876509484#8.19 951878263#0 951878263#0.8 951878263#0.15 951878263#1 951878263#1.39 951878263#1.46 951878263#1.53 951878263#1.72 951878263#1.75 951878263#2 951878263#2.2 -951878266#4 -951878266#4.37 -951878266#2 -951878266#1 -951878266#1.39 -951878266#1.47"/>
</vehicle>
<vehicle id = "veh11" type= "veh_passenger" depart="10815" >
<route edges =" -45342801#4 45342799#23 45342799#25 45342799#25.7 45342799#25.22 45342799#26 45342799#27 45342799#27.15 45342799#27.20 45342799#27.25 45342799#27.36 972507120#0 972507120#2 45342812#0 45342812#1 -45342811#1 -45342811#0 -45342801#0 45342798#2 45342809#4 45342810#0 45342838#0 45342838#1 45342838#2 45342839#1 -45342840#2 671416444#0 671416444#1 671416444#2 45342810#2 -45342840#0 -45342798#0 -45344273#21 -45344273#21.28 -45344273#19 -45344273#18 -45344273#18.17 -45344273#17 -45344273#17.20 -45344273#17.31 -45344273#16 -45344273#16.5 -45344273#16.30 902433295#0 902433295#0.35 -951370982#1 -951370982#0 -45344293#1 -45344293#1.78 -45344293#0 -45344273#13 45342827#0 45342827#0.77 45342827#0.86 45342827#0.92 45342827#0.101 45342827#1 -45342826#0 45342825#1 -45342824#4 45342823#2 -45342828#0 45342825#3 45342825#3.55 45342825#3.65 45342825#3.72 45342825#3.81 45342825#3.88 -45344273#11 -45344273#10 -45344273#10.42 -45344273#9 -45344273#8 -45344273#8.10 -45344273#7 -45344273#7.22 -45344273#6 -45344273#6.40 -45344273#6.59 -45344273#5 -45344273#5.6 -45344273#5.15 -45344273#4 -45344273#4.8 -45344273#4.37 -45344273#3 -45344273#3.6 -45344273#3.14 -45344273#3.31 -45344273#3.48 -45344273#2 -45344273#2.6 -45344273#2.24 -951404493 -951404493.17 -951404493.21 -951404493.24 -951404493.26 -951404493.29 -951404493.32 -951404493.38 -951404493.57 -951404493.66 -951404493.74 -700249212#0 -700249213#9 -700249213#7 -700249213#7.47 -700249213#7.56 -700249213#7.59 -700249213#7.61 -700249213#7.65 -700249213#6 -897252869#3 -897252869#2 897252861 897252860#1 -45344315#1 -45344315#1.25 -45344315#0 -45344315#0.31 700249213#11 -45342808#9 -45342808#8 -45342808#7 -45342808#7.16 -45344273#0 -897252881 -45378637#10 45378639#7 -951404483#2 -951404483#1 -951404474#1 951404473 -951404484#6 951404482 45378639#9 45378639#10 45378639#11 -951404475 -951404475.33 -951404475.43 -951404484#0 -951404484#0.3 -951404484#0.6 -951404484#0.11 -951404484#0.38 -45344310#0 -45344310#0.10 -45344310#0.18 -45344310#0.30 -45344310#0.41 -45344310#0.52 971495602#8 971495602#8.24 971495602#8.86 -313316104#6 -313316104#5 -313316104#5.12 -313316104#5.27 -313316104#5.46 -951435500 -951435500.28 -951435500.32 -951435500.35 -951435500.37 -951435500.40 -951435500.48 -951435500.51 -951435500.54 -951435500.57 -951435500.60 -951435500.63 -951435500.67 -951435500.70 -951435500.74 -951435500.78 -951435500.92 -951435500.96 -951435500.100 -951435500.103 -951435500.108 -951435500.117 -951435500.121 -951435500.125 -951435500.137 -951435500.141 -951435500.145 -951435500.148 -313316104#3 -313316104#2 -313316104#2.13 -313316104#2.35 -313316104#2.44 -313316104#1 -313316104#0 -313316082 -45378649#12 896786296#0 896786296#1 896786296#1.36 -896786262#6 -896786262#6.15 -951355297#2 -951355297#2.10 -951355297#1 -951355297#0 -45378649#7 -45378649#7.4 908869241#0 908869241#0.15 908869241#0.77 -908869239 -908869239.8 -908869239.11 -908869239.13 -908869239.15 -908869239.18 -45378649#3 -45378649#3.8 -896786265#8 -896786265#7 -896786265#7.11 951354765#0 951354763#1 951354763#2 951354763#3 951354763#4 -951995493#0 -951995491#1 -951995491#0 -896786266#12 909024250#0 909024250#1 909024250#2 -909024251 -909024251.41 -896786293#5 -896786293#5.20 -896786293#4 -896786293#3 -896786293#3.1 -45378665#2 -45378665#2.36 -45378665#1 909024239#0 909024239#1 909024239#1.17 909024239#2 909024239#2.40 877398366#3 951995475#4 -904371460#4 -904371460#4.9 -904371460#4.24 -904371460#2 -904371460#2.2 -904371460#1 951995474 -877396860#7 -877396860#6 904371465#0 904371465#1 904371465#2 904371467#2 904371467#2.64 904371467#2.129 -671191680#8 -671191680#6 -896786326#1 -896786326#0 -896786328#0 -896786328#0.177 -877395784#20 -877395784#19 -951946816#15 -951946816#14 -951946816#13 -951946816#13.3 -951946816#13.8 951951634#0 951951634#1 951951634#1.75 951951634#1.79 951951634#1.82 951951634#1.86 951951632#2 951951632#2.8 951951632#2.12 951951632#2.16 951946833#6 951951631#0 951951631#1 951951635#2 -951946818#0 951946833#9 951946833#9.22 -951951630 -951946806#1 -951946806#1.48 -951946806#1.55 -951946806#1.61 -951946806#1.69 -951946806#1.82 -951946806#1.90 -951946806#1.98 -951946806#0 -952365020 -952365021 -951878231#2 951868619#0 951868620#0 -951868611#1 -951878231#0 951951645 -951951643#3 -951951643#2 876509484#2 -951951642#1 -951951642#0 -951878263#5 -951878269#15 -951878269#14 -951878269#13 -951878269#12 -951878269#10 -951878269#9 -951878269#7 -951878269#6 951891765#0 -951887656#1 -951887656#0 -951887655#3 -951887655#2 951887657 951878272#4 951878272#5 904196454#2 951887661#0 951887661#1 951887662 -951887660#2 -951887660#0 877401978#1 951878266#0"/>
</vehicle>
<vehicle id = "veh12" type= "veh_passenger" depart="14420" >
<route edges =" 951370989 951370989.40 951370989.47 951370989.53 951370989.56 951370989.62 951370989.64 951370989.67 -902433320#1 -902433320#0 902433321#2 -45342799#20 -45342797#4 -45342797#3 -951368601#1 -951368602#1 951370983 -45342797#1 -45342797#0 -45342834#1 -45342834#0 44740902#8 -45342798#6 45342813#0 45342813#1 -951370984#1 -951370984#0 -45342803#6 -45342803#5 -45342803#4 45342821#0 45342821#1 45342821#1.9 45342809#10 45342809#10.44 45342809#11 -45342831#3 45342822#0 45342822#1 -45342820#1 -45342820#0 -45342803#2 -45342803#1 44740957#0 44740957#1 44740957#2 44740902#14 44740902#14.81 44740902#14.94 -874839172#0 -44740943 -313316091#20 951438760#0 -672215964 672215965#1 -44740922#0 -313316091#16 -313316091#14 -313316091#14.20 -671761561 -45378689#4 -45378689#2 -45378689#1 -45378689#0 -45378683#0 -45378683#0.55 313316091#8 313316091#8.6 -44740946#1 -44740946#0 -44740945#0 -44740940#0 -44740953#2 -44740923#3 -44740927#16 -44740927#15 -44740927#14 -44740927#13 -44740927#12 951358802 -951358805#0 951358806#1 44740926#8 -44739163#16 -44740981#1 -44740981#0 44739156#15 44740985#0 44740987 -44740927#6 -951358798#1 -951358798#1.14 -951438767 -951438767.19 -951438767.24 -951438767.32 -951438767.38 -951438767.43 -44740927#3 44740920#3 951358797#0 951358797#0.19 951358797#0.36 951358797#0.45 951358797#0.49 951358797#0.51 951358797#0.53 951358797#0.55 951358797#0.57 951358797#0.58 951358797#0.64 951358797#0.66 951358797#0.68 951358797#0.70 951358797#0.72 951358797#0.75 951358797#1 951358797#2 951358797#2.23 951358797#3 -951358800#0 -44740918#1 -44740918#0 44740920#6 -951358792 -951358792.26 -951358792.42 -951358792.53 -951358792.66 896892969#18 45340579#18 45340579#18.164 44740932#0 -44740934#4 668599377#0 668599377#0.33 668599377#1 668599377#1.37 44740916#9 44740916#9.64 -909019783 -909019783.98 -971495601#3 -44740910#8 -671410531#2 -671410531#1 -671410531#1.53 -671410531#1.57 -671410531#1.63 -671410531#0 -909019784#0 313316100#8 313316100#8.72 -971495601#0 -313316086 -44739144#26 -44739144#24 -44739144#22 -44739144#21 -951346849 909778546#1 -951361609 903953324#1 903953324#1.22 -44739144#18 -44739144#16 -44739144#15 -44739144#13 -877396860#22 -952002225#1 -952002225#0 -877398366#20 -877398366#19 896786289#2 896786289#3 -909024270 -909024270.74 -909024270.101 -909024277#0 909024279#4 909024279#4.20 -909024280#1 -909024280#1.18 -909024280#0 896786295#12 896786295#12.9 896786295#13 -896786294#5 -896786294#5.6 -896786294#5.10 -896786294#5.13 -896786294#5.16 -896786294#5.19 -896786294#5.22 -896786294#4 -896786294#3 -896786294#3.26 951992347 -896786277#2 -896786277#0 877398366#16 877398366#17 877398366#17.93 -909024294#1 -909024294#0 -909024294#0.55 -877396860#17 -877396860#17.23 -877396860#16 904286386#2 904286386#3 904286386#3.9 904286386#3.31 904286386#4 904286386#4.19 -904286385#15 -904286385#15.42 -904286385#13 -904286385#13.24 896786290#0 896786290#1 896786290#1.24 896786290#2 -877396860#13 -877396860#12 -904286382#1 -904286382#0 -904286381#0 -671191680#11 -671191680#9 951975997 -904286373#0 -904286375#1 -904286372#0 904286373#4 904286385#8 -951992348 904371486#1 904371487#0 -904371489#2 -904371489#1 -904371489#1.14 -904371489#1.36 -904371489#1.40 -904371489#1.44 671191682#0 671191682#1 -951973462#2 -951973460#1 951973461 951973461.24 951973461.30 951973461.35 904371493#2 904371493#3 904371493#4 904371493#5 951973474#0 951973474#1 -951973473#0 951973472#1 904371492#3 951973476#0 951973476#1 -951973471#2 -951973471#2.11 -951973471#2.14 -951973471#2.17 -951973471#2.20 -951973471#1 -951973471#0 -671191680#1 -671191680#1.13 -671191680#0 -671191680#0.38 -671191680#0.44 -671191680#0.48 -671191680#0.53 -671191680#0.58 -671191680#0.63 -671191680#0.76 -896786327#0 -877395784#21 -877395784#21.14 -951951638#10 -951951638#10.18 951973434#1 951951639#3 951973426#1 -951951638#8 -951951638#7 -951951638#5 951973430#1 951951639#8 951951639#9 951951639#10 951951639#11 951951639#13 951951639#14 951951639#15 896786337#6 896786337#7 896786337#8 896786337#8.8 896786337#10 896786337#10.21 -951887700#20 671756019#0 671756019#1 671756018 951961233#0 951961233#0.22 951961233#0.27 951961233#0.32 951961233#0.37 951961233#1 951961233#3 951961233#3.5 951961233#3.10 951961233#3.14 951961233#3.19 951961244 951961244.37 951961244.40 951961244.43 951961244.47 -951961242#1 951961243 -951887700#14 -951961240#3 -951961240#1 -951961245 951891772#0 -951891773 -951891771#0"/>
</vehicle>
<vehicle id = "veh13" type= "veh_passenger" depart="14420" >
<route edges =" 45342801#5 45342801#5.32 902433317#3 951421968#0 951421968#1 951421968#1.20 -951381446#1 951368598#1 -45344271#32 951368595#0 951368595#1 951368595#1.17 951368595#1.34 902433317#8 902433317#8.29 902433317#9 951368594#0 951368594#1 -951369743#1 -951369743#1.33 -951369743#1.39 -951369743#0 -951369743#0.6 951369744#2 951369744#2.22 951369744#2.31 -951369736 -951369736.21 -951369736.22 -951369736.24 -951369736.25 -951369736.26 -951369736.36 -951369736.39 -951369736.41 -951369746#2 -951369746#2.3 -951369746#2.36 -951369746#2.42 -951369746#2.45 -951369746#2.50 -951369746#1 -951369746#1.3 -951369746#1.9 -951369746#1.18 -951369746#1.26 -951369746#1.35 -951369746#0 -951369746#0.7 -951369748#0 -951369748#0.14 -951369748#0.17 -951369748#0.19 -951369748#0.22 951379886#1 951379886#1.14 951379886#2 951379886#2.14 951379886#2.19 951379886#2.22 951379886#2.25 951379886#2.28 -951369741#1 -951369741#1.20 -951369741#1.25 -951369741#1.30 -45344273#26 897252876#0 897252876#0.16 897252876#0.57 897252876#1 897252876#1.54 -45344336#9 -45344336#9.10 -45344336#9.61 -45344336#9.126 -45344336#9.147 -950455054 -45344320#5 -45344320#5.17 -45344320#4 -45344331#4 -45344331#3 -45344331#2 -45344331#1 -45344331#0 45344326#3 -897172091#6 -897172091#5 -897172091#4 -897172091#3 -897172091#1 -897172091#0 -45344296#0 -45344296#0.92 -45344296#0.150 -901885452#0 -897252884#0 -45344329#1 951370979#0 -951440590 45344291#2 45344291#3 45344291#3.27 45344291#3.54 45344291#3.63 45344291#3.68 45344291#3.139 -951370958 45344288#1 45344288#1.10 45344288#1.64 45344288#1.123 45344288#1.180 951370977 45344292#1 45344292#3 45344290#2 -951370976#1 -951370976#0 -951370976#0.11 -951370976#0.13 -951370976#0.16 -951370976#0.19 -951370976#0.21 -951370976#0.23 897252863#3 -951370963 951370970#2 -45344304#9 -45344304#8 -45344304#8.11 -45344304#7 -45344304#6 -45344304#6.5 -45344304#6.31 -45344304#6.62 -45344304#5 -897252858#3 -897252852#6 -897252852#6.26 -897252852#5 -897252852#3 -897252853 -45344304#1 -45344304#1.10 -45344304#1.52 -45344304#0 45344272#10 45344272#10.38 -896892971#3 -896892971#2 -896892971#2.32 -896892971#2.61 -896892971#2.75 -896892971#1 -896892971#0 -896892971#0.14 -896892971#0.28 -896892971#0.54 -896892971#0.88 -45344286#8 -45344286#7 -702632122#4 -702632122#4.41 -702632122#4.57 -702632122#4.62 -702632122#4.67 -702632122#4.71 -702632122#4.73 -702632122#4.77 -702632123#3 -702632123#2 -702632123#1 -702632123#1.4 -702632123#0 45344272#13 45344272#13.4 45344272#13.35 45344298 896892974 971495602#11 971495602#12 971495602#12.26 971495602#12.77 951442813 951442812#0 -896786335#50 -896786335#49 -896786247#9 -896786247#9.8 -896786247#9.17 -896786247#9.75 -896786247#9.157 -896786247#8 -896786247#7 -896786247#7.2 -896786247#6 -896786247#6.66 -896786247#6.103 -896892976#1 -896892976#1.4 -896892977#3 -896892977#3.15 -896892977#3.37 908869249#0 908869249#0.22 908869249#1 -908869246 -908869247 -908869248#2 -908869248#1 -908869248#1.4 -908869248#1.6 -908869248#1.9 -908869248#1.11 -908869248#1.19 -951358827#2 -951358826 -951358826.10 -951358826.13 -951358826.16 -951358826.19 -951358826.36 -951358826.40 -951358826.44 -951358826.49 -896786335#42 -896786335#42.22 -896786335#41 -896786335#40 -896892982#2 -896892982#1 -951349921#5 -951349921#5.15 -951349921#5.17 -951349921#5.20 -951349921#5.23 -951349921#5.25 -951349921#5.32 -951349921#5.34 -951349921#5.37 -951349921#5.39 -951349921#5.42 951349920 951349920.8 951349920.12 951349920.15 951349920.20 951349920.60 951349920.65 951349920.69 951349920.73 951349920.77 -896786335#37 -896786335#36 -896786335#34 -896786335#33 -951354773#3 -951354773#3.20 -951354773#3.23 -951354773#3.26 -951354773#3.28 -951354773#3.30 -951354773#3.32 -951354773#3.34 -951354773#3.38 -951354773#3.40 -951354773#3.43 -951354773#3.45 -951354771#1 -951354771#0 896893028#5 -896786335#29 -896786335#29.17 -896786335#28 -896786335#27 -896786335#27.19 951358823 951358823.10 951358823.15 951358823.20 951358823.26 951354763#3 951995494#0 -951995491#2 951995493#0 951354763#5 -951995492#0 -951995491#0 896786266#13 896786266#13.14 -896786335#21 -896786335#21.41 -896893011#1 -896893011#0 -896893011#0.52 -896893013#2 -896893013#1 -896893013#1.7 -896893009 -896893009.79 -896893012#4 -896893007#1 -896893007#1.18 -896893008#1 -896893008#0 896786300#2 896786300#2.40 896786300#2.70 896786300#3 896786300#3.17 -896786335#14 -896786335#14.27 -896786335#13 -951983587#9 -951983587#8 -951983588#1 -951983588#0 -951983586#0 -896786303#0 896786311#13 896786311#13.28 -896786335#10 -896786335#10.38 -896786335#9 -896786335#8 -896786335#8.39 -896786335#7 -896786335#6 -896786335#4 -896786335#4.18 -896786335#3 -896786335#3.10 -896786335#2 -896786335#1 -896786335#1.14 -896786335#0 -951946803#2 -951946803#1 -951946803#1.55 -951946803#1.59 -951946803#1.61 -951946803#1.64 951946795#1 951946795#2 951946795#3 951946795#4 951946795#6 951946795#7 951946795#9 951946795#10 951946795#11 951946795#11.34 951946795#11.40 951946795#11.45 -951887683 -951887684 -951887682#6 951887695#5 -951887700#19 -951887700#18 -951887700#17 -951887700#17.17 951961234#0 951961235 -671756019#3 -671756019#2 -671756019#2.4 -671756019#1 -951961251#1 -951961251#0 -876509484#7 -876509484#7.6 -876509484#7.25 -876509484#6 -876509484#6.3 -876509484#6.8 -876509484#6.12 -876509484#6.15 951878264#0 951878264#0.74 951878264#2 -951878263#3 -951878266#4 -951878266#4.37 -951878266#2 -951878266#1 -951878266#1.39 -951878266#1.47"/>
</vehicle>
<vehicle id = "veh14" type= "veh_passenger" depart="14420" >
<route edges =" -45342801#4 -45342801#3 903341082#0 903341082#0.10 -672813677#4 -672813677#4.16 -672813677#2 -672813677#1 -672813677#1.10 -672813677#1.22 -672813677#0 -672813677#0.12 -672813677#0.41 951370988 951370988.6 951370988.11 951370988.16 902433317#6 902433317#7 -951368596 45342799#27 45342799#27.15 45342799#27.20 45342799#27.25 45342799#27.36 972507120#0 972507120#2 45342812#0 45342812#1 45342811#2 45342811#2.66 -45344273#22 -45344273#22.6 -45344273#22.18 -45344273#22.35 -45344273#21 -45344273#21.28 -951441770 45342810#5 -973399407#2 -45342830#1 44740885#16 44740885#17 -45344273#14 -45344273#14.32 -45344273#13 -45344273#12 -45344273#11 -45344273#10 -45344273#10.42 -45344273#9 -45344273#8 -45344273#8.10 -45344273#7 -45344273#7.22 -45344273#6 -45344273#6.40 -45344273#6.59 -951384598#3 -951384597 -951384597.29 -951384597.36 -951384597.43 -45344273#3 -45344273#3.6 -45344273#3.14 -45344273#3.31 -45344273#3.48 -45344273#2 -45344273#2.6 -45344273#2.24 -45344273#1 -45344273#1.7 -45344273#0 -897252881 -45378637#10 -45378637#9 -951404484#10 -951404483#1 -951404474#1 951404473 -951404484#6 -951404484#5 -951404484#4 -951404484#4.8 -951404484#4.11 -951404484#4.13 -951404484#4.15 -951404484#3 -951404484#3.5 -951404484#3.9 -951404484#3.14 -951404484#3.25 -951404484#3.32 -951404484#2 -951404484#2.19 -951404484#2.23 -951404484#2.26 -951404484#2.29 -951404476 -951404476.16 -951404476.32 -951404476.50 -951404476.59 -951404476.68 -951404476.84 -951404476.93 -951404476.101 -951404476.106 -951404476.113 971495602#7 971495602#7.32 971495602#7.56 971495602#8 971495602#8.24 971495602#8.86 -313316104#6 -313316104#5 -313316104#5.12 -313316104#5.27 -313316104#5.46 -313316104#4 -313316104#4.4 -313316104#4.18 -313316104#4.31 -313316104#4.41 -313316104#4.56 -313316104#3 -951347804#2 -951347804#2.16 -951347804#2.19 -951347804#2.23 -951347804#2.26 -951347804#2.30 -951347804#2.33 -951347804#2.35 -951347804#0 -951347804#0.1 -951347804#0.6 -951347804#0.20 -951347804#0.28 -951347804#0.33 -951347804#0.39 45378651#1 45378651#2 45378651#2.13 45378651#3 45378651#4 -951347808#1 -951347808#0 908560884#1 908560884#1.8 908560884#2 908560885#2 908560885#2.7 908560885#3 908560885#3.4 908560885#3.9 908560885#3.15 45378651#7 45378651#7.19 45378651#8 45378651#8.42 45378651#9 45378651#9.21 45378651#10 45378651#11 -908560872#1 -908560872#1.53 -908560872#1.77 -951436653 -951436654#0 -908560873#0 -908560873#0.16 -908560874#1 -908560874#1.11 -908560874#0 -908560874#0.14 -908560901#17 -908560901#17.7 -908560901#16 -908560901#16.20 -908560901#15 -908560901#14 -908560901#14.9 -908560901#13 -908560901#13.39 -908560901#12 -908560901#10 -908560901#9 -908560901#9.4 -908560901#9.59 -313316104#0 -313316082 -45378649#12 -45378649#11 -45378649#11.22 -45378649#10 -45378649#10.20 -45378649#9 -45378649#9.7 -45378649#7 -45378649#7.4 -45378649#5 -45378649#5.24 -45378649#5.57 -45378649#5.68 -45378649#3 -45378649#3.8 -45378649#2 -45378649#2.8 951354763#0 951354763#1 951358824#1 -896786265#5 -896786265#4 -896786265#4.59 -896786265#2 -896786265#0 896786266#11 896786266#11.13 909024250#0 909024250#1 909024250#2 909024250#4 909024250#5 909024250#6 909024239#0 909024239#1 909024239#1.17 909024239#2 909024239#2.40 877398366#3 -951995475#3 -951995475#2 -951995475#1 -951995475#1.25 -951995475#0 -896786293#0 896786292#2 896786292#2.23 896786292#2.61 896786292#3 -896786287#1 -951995479#0 -896786286#1 -896786286#1.14 -896786286#0 -896786286#0.12 877398366#9 -904371462#2 -904371462#1 -904371462#1.14 -904371462#1.100 -877396860#8 -877396860#7 -877396860#6 -877396860#4 -877396860#3 -951975994 -896786324#1 -896786324#0 -896786324#0.19 -896786324#0.132 -896786324#0.177 -877395784#19 -877395784#17 -877395784#17.8 -877395784#17.24 -877395784#15 -877395784#14 -877395784#14.13 951946817#0 -951946816#10 -951946823 -951946821#0 -951946821#0.2 -951946821#0.6 -951946821#0.9 -951946818#2 -951946806#8 -951946806#7 951946807 -951946806#2 951951630 951946833#11 951946833#11.92 951946833#11.95 951946833#11.98 951946833#11.101 -951946806#0 -952365020 -952365021 -951878231#2 -951951643#6 951951644#0 -951951642#4 -951951642#3 -951951642#3.15 -951951642#3.18 -951951642#3.20 -951951642#3.23 -951951642#3.36 -951951642#3.39 -951951642#3.41 -951951642#3.43 951951646 -951951643#2 -951951643#1 -951951643#0 -951878263#7 -951878263#6 -951878263#5 -951878269#15 -951878269#14 -951878269#13 -951878269#12 951878270#0 951878270#0.33 951878270#0.36 951878270#0.39 951878270#0.42 951878270#2 951878270#3 951878270#4 -951891764#2 -951891764#1 -951891764#0 -951887663#3 951887661#3 951878266#0"/>
</vehicle>
<vehicle id = "veh15" type= "veh_passenger" depart="18025" >
<route edges =" 951370989 951370989.40 951370989.47 951370989.53 951370989.56 951370989.62 951370989.64 951370989.67 -902433320#1 -902433320#0 902433321#2 -45342799#20 -45342797#4 -45342797#3 -45342797#2 -951370983 -951368602#0 45342835#1 45342835#2 45342809#2 45342809#3 45342809#4 45342809#5 45342809#6 45342809#7 -45342814#5 -45342814#4 -45342814#3 -45342814#2 -45342814#1 44740902#11 -44740885#6 -44740885#5 -44740885#5.33 -44740885#4 -44740885#3 -44740901#6 -44740901#5 -44740901#4 -44740901#3 -44740957#5 -44740957#4 44740902#14 44740902#14.81 44740902#14.94 -44740942#2 -44740942#2.11 -44740942#1 -44740901#0 -313316089 -951438761 44740929#6 44740967#1 -951438763#1 -951438763#1.52 -951438763#0 -951438763#0.72 -951438763#0.77 -951438763#0.80 -951438763#0.82 -951438763#0.85 44740929#3 -951438759 -44740922#1 -44740922#0 -313316091#16 -313316091#14 -313316091#14.20 -313316091#12 45378690#0 45378690#0.38 -45378691 -45378682#0 -45378682#0.30 313316091#10 313316091#10.40 951438765 -44740948#0 -44740946#0 44740945#1 44739167#14 44739167#15 44739167#15.29 -313316091#6 -313316091#5 -313316091#5.44 -313316091#4 -313316091#4.67 -313316091#2 -313316091#2.44 -44740931#1 -44740919#0 44740920#8 -313316091#0 -313316091#0.27 -313316091#0.72 -313316091#0.80 -971495601#9 -971495601#9.28 44740934#0 -668599375#2 -668599375#2.17 -668599375#1 -668599375#1.9 -668599375#0 -909019783 -909019783.98 -971495601#3 -971495601#1 -971495601#0 -313316086 -44739144#26 -44739144#24 909024272#0 909024272#0.29 909024273#0 909024273#0.33 909024273#1 -909024277#3 -909024274 909024275#1 909024273#3 909024276#0 909024276#0.40 951433468 951433468.11 951433468.23 951433468.31 951433468.39 951433468.48 951433468.57 -896786296#16 -896786296#15 -896786296#15.18 -909024259#2 -909024259#2.7 -909024259#2.19 -909024259#2.45 -909024259#2.64 -909024259#1 -909024259#1.12 951347814#0 951347814#0.11 951347814#0.14 951433464 951347813#1 951347813#1.31 951347813#1.37 909024258#1 909024258#1.3 -896786296#13 -896786296#13.73 -896786296#12 -896786296#12.39 -896786296#12.86 896786295#0 896786295#0.19 896786295#1 896786295#1.16 896786295#3 896786295#3.23 896786295#4 896786295#5 896786295#6 896786295#6.12 -896786280#3 909024257 909024257.36 909024257.92 -896786275#3 896786271#1 896786270#0 896786270#1 -896786269#7 -896786269#6 -896786269#6.9 -896786269#6.56 896786268#0 896786268#1 896786268#2 896786268#2.6 896786268#3 896786295#13 -896786294#5 -896786294#5.6 -896786294#5.10 -896786294#5.13 -896786294#5.16 -896786294#5.19 -896786294#5.22 -896786294#4 -896786294#3 -896786294#3.26 -896786294#2 -896786294#2.7 -702673217#5 -702673217#4 -702673217#3 -896786289#2 877398366#19 -909024264#1 -909024263 -909024263.30 -909024265#0 -896786289#0 -896786289#0.7 -904371479#3 -904371474#3 -904371474#2 -904371474#1 -904371474#0 -904371474#0.12 904286383#0 904286383#1 896786290#2 -877396860#13 -877396860#12 -877396860#11 -671191680#13 904286381#0 -904286374 904286375#3 -671191680#9 951975997 904286373#1 904286373#2 904286373#2.10 904286371 -671191680#6 -671191680#5 904371490#0 -951973468#2 -951973468#2.26 -951973468#2.29 -951973468#2.31 -951973468#2.34 -951973469 904371490#2 -904371492#6 -904371456#3 -904371456#2 -904371456#2.22 -904371456#1 -904371456#0 -904371456#0.17 -671191680#0 -671191680#0.38 -671191680#0.44 -671191680#0.48 -671191680#0.53 -671191680#0.58 -671191680#0.63 -671191680#0.76 -896786327#0 877395784#22 877395784#22.56 877395784#23 -952002224#7 -952002224#7.17 -952002224#7.71 -951973426#2 951951638#9 951973434#1 951951639#3 951951639#4 -951973432#1 -951951638#7 -951951638#5 -951951638#4 -951951638#3 952000398 951951639#13 -951946794#0 951946792#1 896786337#8 896786337#8.8 896786337#10 896786337#10.21 -951887700#20 -951887695#5 -951887682#5 -951887682#4 951887687#0 951887687#0.26 951887687#1 951887687#1.5 951887687#1.11 -951887700#15 -951887700#14 -951887700#12 -951887700#12.12 951961240#0 951961240#0.54 951961240#0.57 951961240#0.59 951961240#0.62 -951961245 951891772#0 951891772#1 -951891774 -951891771#1 -951891771#0"/>
</vehicle>
<vehicle id = "veh16" type= "veh_passenger" depart="18025" >
<route edges =" 45342801#5 45342801#5.32 902433317#3 902433317#4 902433317#6 902433317#7 902433317#8 902433317#8.29 902433317#9 951368594#0 951368594#1 951368594#2 972507120#3 -951421966 -951369743#0 -951369743#0.6 951369744#2 951369744#2.22 951369744#2.31 951369744#3 951369744#3.5 951369745#2 951369745#2.2 951369745#2.14 951369745#2.20 951369745#2.26 -951369742 -951369742.3 -951369742.6 -951369742.30 -951369742.33 -951369742.36 -951369742.38 876567894#58 876567894#58.2 876567894#58.7 876567894#58.15 876567894#58.20 876567894#59 876567894#60 876567894#60.19 -951369737#3 -951369737#3.16 -951369737#3.20 -951369737#3.24 -951369737#3.29 -951369737#3.34 -951369737#3.39 -951369737#3.42 -951369737#3.56 -951369737#3.63 -951369737#3.67 -951369737#3.71 -951369737#2 -951369737#2.6 -951369737#2.17 -951369737#2.25 -951369737#2.35 -951369737#2.43 -951369737#2.48 -951369738 -951369738.5 -951369738.18 -951369738.24 -951369738.31 -951379885 -951379885.7 -951379885.13 -951379885.20 -951379885.27 951379886#2 951379886#2.14 951379886#2.19 951379886#2.22 951379886#2.25 951379886#2.28 -951369741#1 -951369741#1.20 -951369741#1.25 -951369741#1.30 45344273#27 45344273#27.17 45344273#28 45344273#29 45344273#29.12 45344273#29.34 45344273#30 45344273#30.8 45344273#30.25 45344273#30.39 45344273#31 45344273#31.5 45344273#31.16 45344273#32 45344273#32.22 45344273#32.44 45344273#33 45344273#34 45344273#34.26 45344278#0 45344278#0.58 45344278#0.62 45344278#0.65 45344278#1 45344278#2 45344278#2.33 -950780326#2 -903341095#1 -903341095#0 -45344271#17 -45344278#5 950238180#0 950238180#1 950238184#4 -950235722#2 950806860#0 950806860#0.6 950806860#0.11 950806860#0.18 950806860#0.28 950806860#0.34 950806860#0.40 950806860#0.51 950806860#0.61 950806860#0.72 950235723#1 -45344277#7 -45344277#6 -45344277#4 950806851 950806851.32 950806851.35 950806851.38 950806851.40 950806851.42 950806852#1 950235725#5 950806853 -950235727#1 -950235727#1.45 -950235727#0 950641816#6 -950872165#4 -950641807#1 -950641807#1.20 -950641807#1.25 -950641807#1.30 -950641807#1.33 -950641807#1.38 -950641807#1.42 -950641807#1.47 -950235729#1 -950235729#0 897252880#5 -45344277#9 -950806850#1 -950806850#0 -45344271#11 897252880#7 897252880#7.68 950238184#0 950238180#4 950238180#4.24 950238180#5 950238180#5.14 950238178#1 950755158 950755158.30 950755158.35 950755158.39 950755158.45 950238179#1 -45344273#36 -45344273#36.15 -950235692#4 -950235692#3 950235697#0 950732876 -950235699#1 950235695#0 950235697#3 -950235700#1 950235694#0 950235695#3 45344336#6 45344336#6.56 950235692#0 950235694#3 -950235703#3 -950235703#2 -950235703#2.9 -950235703#0 -950235703#0.13 -950235703#0.32 -950235703#0.55 -950235703#0.71 -950235703#0.86 -950235703#0.97 -950235703#0.108 950235699#5 -950238177#1 -950238177#1.15 950235705#0 950235705#1 950235705#1.22 950235705#1.46 950235705#1.60 950235705#1.74 950235705#1.85 -950455048#3 -950455048#3.28 -950235694#6 -950235694#6.23 -950235694#6.27 -950235694#6.30 -950235694#6.35 951381436 951381436.26 951381436.34 951381436.39 951381436.45 -897252875#0 -897252875#0.4 -897252875#0.15 -897252875#0.35 897252876#3 897252876#4 45344320#2 -45344329#7 -45344329#6 -45344329#5 45344333#0 45344333#1 45344333#2 45344331#2 45344331#3 45344327#1 -897172091#10 -897172091#9 -897172091#8 699875133 699875130#1 699875130#3 699875130#3.37 -897172091#0 -45344294#6 -45344294#6.9 -45344294#6.25 -45344294#5 -45344294#5.7 -45344291#4 -45344291#4.36 -951370958 -45344288#0 -45344288#0.29 -45344294#3 -45344294#1 -45344294#0 -45344304#5 -45344286#12 -45344299 -45344299.40 -45344299.79 -45344299.80 -45344299.82 -45344299.84 -45344299.86 -45344299.89 -45344299.97 -45344299.99 -45344299.101 -45344299.106 -896892971#1 897252856 897252856.32 897252856.36 897252856.40 897252856.43 897252856.47 897252856.51 -45344286#9 -45344286#9.15 -45344286#9.41 -45344286#9.67 -45344286#8 -951384608#1 -951384608#1.59 -951384608#1.63 -951384608#1.67 -951384608#1.69 -951384608#1.73 -951384608#0 -951384608#0.43 -951384608#0.47 -951384608#0.50 -951384608#0.52 -702632123#1 -702632123#1.4 -951404495 -951384610#0 45344272#12 45344272#13 45344272#13.4 45344272#13.35 45344298 896892974 971495602#11 971495602#12 971495602#12.26 971495602#12.77 951442813 951442812#0 -896786335#50 -896786335#49 -896786335#48 -896786335#48.15 -896786335#47 -896786335#46 -896786335#44 -896786335#44.9 -896786335#44.71 -896786335#43 -896786335#42 -896786335#42.22 896892983#0 896892983#0.10 896892983#1 896892983#1.19 -951421976 896892982#2 -896786335#39 -896786335#39.27 -896786335#37 -896786335#36 -896786335#34 -908869252#3 -908869252#3.7 -908869252#3.13 -908869252#3.35 -908869252#3.57 -908869252#3.88 -908869252#3.90 -908869252#3.94 -908869252#1 -908869252#0 -908869252#0.17 -896786335#30 -896893028#5 -896893028#4 -896893028#4.22 -896893028#3 -896893028#3.26 -896893028#1 -896893028#1.14 -896893028#0 -896893028#0.19 -877388646#5 -877388646#5.83 -877388646#3 -896893026#2 -896893026#1 -896893026#1.16 -896893026#1.19 -896893026#1.21 -896893026#1.33 -896893026#1.37 -896893026#1.40 -896893026#0 -896786297#6 -896786297#6.39 -896786297#5 -896786297#5.15 -896893005#4 -896893005#3 -896893005#2 -896893005#2.6 877388728#11 -896893014#1 896893015#1 896893015#1.26 896893015#2 896893015#3 -896893018#0 877388728#14 -896786335#24 -896786335#23 -896786335#23.44 -896786335#22 -896786335#21 -896786335#21.41 -896893011#1 -896893012#6 -896893012#6.12 -896893012#5 -896893012#5.11 -896893012#4 -896893012#3 -896893012#2 -896893012#2.9 -896893012#1 -896893012#0 -896893012#0.11 -896786303#4 -896786303#4.22 -896786303#3 -896786303#2 -896786303#2.23 -951983587#8 -951983588#1 951983589#0 896786304#8 896786304#8.15 896786304#9 896786304#9.20 896786311#11 896786311#11.62 -951976011#1 -951976011#0 -896786321#1 -896786321#1.3 -896786321#0 -896786321#0.44 -896786321#0.169 -896786311#7 -896786311#6 -896786311#6.24 951983602 951930672#1 -951930673#3 -951930673#3.17 -951930676 -951930676.40 -951930676.43 -951930676.45 -951930676.48 -951930671#1 -951930671#0 -951930671#0.25 -951930671#0.32 -951930671#0.42 -877396172#3 896786315#0 896786320#0 896786320#1 951976009#0 951976009#1 -896786335#7 -896786335#6 -896786335#4 -896786335#4.18 -896786335#3 -896786335#3.10 -896786335#2 951976001#0 951976001#1 -951976000#3 -951976000#2 -951976000#2.3 -951976000#2.6 -951976000#2.8 -951976000#2.12 -951976000#1 -951975999 877395784#15 -951946803#2 951946816#14 951946795#0 951946795#0.4 951946795#0.7 951946795#0.9 951946795#1 951946795#2 951946795#3 951946795#4 951946795#6 -951946798#2 951951639#10 951946797 951946795#9 951946795#10 951946795#11 951946795#11.34 951946795#11.40 951946795#11.45 -951887683 -951887684 -951887682#6 951887695#5 -951887700#19 -671756019#4 -951961235 951961234#1 -951878265#2 -951878265#1 -951878265#0 951878264#2 951878263#4 -951878269#15 -951891772#2 -951891772#1 -951891772#0 -951878266#2 -951878266#1 -951878266#1.39 -951878266#1.47"/>
</vehicle>
<vehicle id = "veh17" type= "veh_passenger" depart="18025" >
<route edges =" -45342801#4 45342799#23 45342799#25 45342799#25.7 45342799#25.22 45342799#26 45342799#27 45342799#27.15 45342799#27.20 45342799#27.25 45342799#27.36 -951370987 -951370987.52 -951370987.54 -951370987.56 -951370987.57 -951370987.59 -951370987.62 -903341083#2 -903341083#1 -951368605#2 -951368605#1 -951368605#0 -45342811#0 -45342801#0 -45342798#1 -45342798#0 -45344273#21 -45344273#21.28 -45344273#19 -45344273#18 -45344273#18.17 -45344273#17 -45344273#17.20 -45344273#17.31 -45344273#16 -45344273#16.5 -45344273#16.30 -45344273#14 -45344273#14.32 -45344273#13 -45344273#12 -45344273#11 -45344273#10 -45344273#10.42 -45344273#9 -45344273#8 -45344273#8.10 -45344273#7 -45344273#7.22 -45344273#6 -45344273#6.40 -45344273#6.59 -45344273#5 -45344273#5.6 -45344273#5.15 -45344273#4 -45344273#4.8 -45344273#4.37 -45344273#3 -45344273#3.6 -45344273#3.14 -45344273#3.31 -45344273#3.48 -45344273#2 -45344273#2.6 -45344273#2.24 -45344273#1 -45344273#1.7 -45344273#0 -897252881 -45378637#10 -45378637#9 -951404484#10 -951404484#9 -951404484#9.20 -951404484#8 -951404484#6 -951404484#5 951404481 45378639#10 45378639#11 45378639#12 45378639#12.8 -45344310#1 -45344310#0 -45344310#0.10 -45344310#0.18 -45344310#0.30 -45344310#0.41 -45344310#0.52 971495602#8 971495602#8.24 971495602#8.86 45340579#6 -908560887#8 -908560887#8.9 -908560887#8.22 -908560887#8.29 -908560887#8.34 -908560887#8.39 -908560887#8.43 -908560887#8.49 -908560887#8.57 -908560887#8.62 -908560887#8.67 -908560887#8.71 -908560887#7 -908560887#7.10 -908560887#7.18 -908560887#7.26 -908560887#7.31 -908560887#7.34 -908560887#7.37 -908560887#6 -908560887#6.10 -908560887#6.22 -908560887#6.25 -908560887#6.28 -908560887#6.33 -908560887#6.42 -908560887#6.47 -908560887#6.51 -908560887#6.56 -908560887#6.60 -908560887#6.65 -951435498 -951435498.10 -951435498.17 -951435498.23 -951435499#0 -951435499#0.4 -951435499#0.9 -951435499#0.15 -951435499#0.19 -951435499#0.23 -951435499#0.29 -951435499#0.33 -951435499#0.37 -951435499#0.41 -951347804#0 -951347804#0.1 -951347804#0.6 -951347804#0.20 -951347804#0.28 -951347804#0.33 -951347804#0.39 -45378651#0 -45378651#0.20 -313316104#1 -313316104#0 -313316082 -45378649#12 -45378649#11 -45378649#11.22 -45378649#10 -45378649#10.20 -45378649#9 -45378649#9.7 -45378649#7 -45378649#7.4 -45378649#5 -45378649#5.24 -45378649#5.57 -45378649#5.68 -45378649#3 -45378649#3.8 -45378649#2 -45378649#2.8 951354763#0 -951354765#0 -896786265#6 -896786265#6.26 -896786265#5 -896786265#4 -896786265#4.59 -896786265#2 -896786265#0 909024253#0 951995490#0 909024242 896786293#7 909024253#2 909024253#2.16 909024252#1 -896786266#7 -896786266#6 -896786266#6.39 -896786260#0 -896786260#0.52 896786257#4 896786257#5 896786257#6 896786257#6.8 896786257#6.44 896786257#6.53 896786257#7 896786257#7.17 896786257#7.37 896786257#7.44 896786257#7.49 896786257#7.54 -45378665#1 909024239#0 909024239#1 909024239#1.17 909024239#2 909024239#2.40 -951983585 -951975994 -896786324#1 -896786324#0 -896786324#0.19 -896786324#0.132 -896786324#0.177 -877395784#19 -877395784#17 -877395784#17.8 -877395784#17.24 -877395784#15 951946833#0 951946833#1 951946833#2 951946833#3 -951946817#5 -951951636 951951635#2 -951946806#8 951951629 951946833#11 951946833#11.92 951946833#11.95 951946833#11.98 951946833#11.101 -951946806#0 -952365020 -952365021 -951878231#2 -951951643#6 -951951643#5 -951951643#4 -951951643#3 -951951646 -951951642#2 -951951642#1 -951951642#0 951878263#6 951878263#7 951878263#8 951878230#4 -951891772#4 -951961237 951891766#3 -951878269#10 -951878269#9 -951930614 951878270#4 -951887656#2 -951887656#1 951878272#1 951878272#2 -951891763#2 -951887659#1 -951887659#0 -904196454#2 -904196454#1 -904196454#1.67 -904196454#0 -700825961#7 -700825961#7.10 -700825961#7.37 -951891762 700825962#6 700825962#7 700825962#7.15 700825962#7.28 700825962#8 700825962#8.3 951887700#0 700825961#5 700825961#5.31 700825961#5.42 951887666#0 951887666#1 951887666#2 951887664#1 904196454#5 904196454#6 -951887665 -951961236#0 -951887700#4 904196454#8 904196454#8.42 904196452#6 904196452#7 -951887672#4 -951887671#1 -951887671#0 -951887668#0 951887669#1 951887669#2 -951887672#2 951887667#7 -904196453#11 951887674#0 951887674#1 951887674#1.3 951887674#1.7 951887674#2 951887674#3 951887674#3.83 951887674#3.90 951887674#3.96 951887674#3.101 951887674#3.111 951887674#3.114 951887674#3.118 -877401978#3 -877401978#3.69 -951887664#3 951887663#1 951887663#2 951887661#3 951878266#0"/>
</vehicle>
<vehicle id = "veh18" type= "veh_passenger" depart="21630" >
<route edges =" 951370989 951370989.40 951370989.47 951370989.53 951370989.56 951370989.62 951370989.64 951370989.67 -902433320#1 -902433320#0 902433321#2 45342799#21 45342809#0 45342809#1 45342809#2 45342809#3 45342809#4 45342809#5 -45342836#2 -45342836#0 -45342818#1 -45342817#2 -45342817#1 45342816#0 951370984#1 951370984#2 44740902#10 44740902#10.9 44740902#11 44740902#12 671399046#2 671399046#2.23 -671399054#1 -671399054#0 671399058#1 671399058#2 -44740901#3 -44740901#2 -671399049#1 -671399049#0 -671399051#0 44740942#2 44740942#2.58 -874839172#0 -44740943 -313316091#20 -313316091#19 -313316091#18 -313316091#18.26 -313316091#17 -313316091#16 45378639#0 45378639#0.48 -45378689#5 -45378689#4 -45378689#2 45378688#0 45378655#0 45378655#1 -45378683#1 -45378683#0 -45378683#0.55 -44739167#15 -44739167#15.17 44740949#0 44740949#1 44740949#2 -44740919#1 44740931#1 -313316091#1 -313316091#1.32 -313316091#0 -313316091#0.27 -313316091#0.72 -313316091#0.80 -971495601#9 -971495601#9.28 -971495601#8 -971495601#7 -971495601#6 -971495601#5 -971495601#3 -971495601#1 -971495601#0 -313316086 -44739144#26 -44739144#24 909024272#0 909024272#0.29 909024272#1 909024272#1.30 909024272#1.53 909024271#1 -896786294#10 -896786294#8 -896786294#7 -896786294#7.20 -896786294#6 -896786294#5 -896786294#5.6 -896786294#5.10 -896786294#5.13 -896786294#5.16 -896786294#5.19 -896786294#5.22 -896786294#4 -909024256#1 -909024256#1.22 -909024256#1.80 -896786277#3 -896786277#2 -896786277#0 -896786290#5 -896786290#4 -896786290#4.18 -896786290#3 -896786290#2 904286383#2 904286383#3 904286383#3.17 -904286379 904286381#3 904286381#3.4 904286381#3.18 904286381#4 904286381#6 -904371470#2 -904371470#1 904286386#4 904286386#4.19 -904371469 904371473#3 -904286388#0 904286386#7 951973455 -951973456#0 -904286387#2 -904286387#2.12 -904286387#1 951973452#1 951973454 951973453#1 -951992361 -904371488#6 -904371488#5 -904371488#4 904371486#0 904371486#1 904371486#2 904371486#4 904371486#4.3 -951973462#3 -951973462#3.3 -951973462#3.5 -951973462#3.8 -951973462#3.10 -951973462#3.15 -951973462#3.18 -951973462#3.21 -951973462#3.25 -951973462#3.31 -951973462#3.34 -951973462#3.38 -951973462#3.47 -951973462#3.53 -951973462#3.58 -951973462#3.69 -951973462#3.74 -951973462#3.79 -671191682#1 -671191681#3 -671191681#3.14 -671191681#2 -671191681#1 -671191681#0 904286385#1 904371493#5 904371492#2 904371492#3 904371492#4 951973457 904286385#4 -904371490#4 951973470#0 -951973471#4 -904371456#2 -904371456#2.22 -951973471#1 -951973471#0 -671191680#1 -671191680#1.13 -671191680#0 -671191680#0.38 -671191680#0.44 -671191680#0.48 -671191680#0.53 -671191680#0.58 -671191680#0.63 -671191680#0.76 -896786327#0 -877395784#21 -877395784#21.14 -951951638#10 -951951638#10.18 951973434#1 951951639#3 951973426#1 951973426#2 -952002224#6 -952002224#5 -952002224#5.5 -952002224#4 -952002224#4.27 -952002224#3 -952002224#3.30 -952002224#3.48 -952002224#3.80 904286410#0 904286410#0.33 904286409#0 904286409#1 -951874861 -904286402#1 -904286402#0 -904286410#2 -904286411#3 -904286411#2 -904286411#2.14 -951874848#1 -951874848#0 -952002224#1 896786337#4 951951638#0 951951638#1 -951946794#1 -951946794#0 951946792#1 896786337#8 896786337#8.8 896786337#10 896786337#10.21 -951887700#20 -951887700#19 -951887700#18 -951887700#17 -951887700#17.17 -951887700#16 -951887700#15 -951961243 -951961242#0 -951961240#1 -951961245 951891772#0 951891772#1 -951891774 -951891771#1 -951891771#0"/>
</vehicle>
<vehicle id = "veh19" type= "veh_passenger" depart="21630" >
<route edges =" 45342801#5 45342801#5.32 902433317#3 902433317#4 951368598#0 -951381446#0 951368595#1 951368595#1.17 951368595#1.34 902433317#8 902433317#8.29 951368593#1 972507120#2 972507120#3 -951369746#4 -951369746#4.24 -951369746#4.27 -951369746#4.29 951369745#0 -951381440 -951369738 -951369738.5 -951369738.18 -951369738.24 -951369738.31 -951369741#2 -951369741#2.8 -951369741#2.11 -951369741#2.13 -951369741#2.16 -951369741#2.19 -951369741#2.22 -951369741#1 -951369741#1.20 -951369741#1.25 -951369741#1.30 45344273#27 45344273#27.17 -897252875#3 -897252875#2 -897252875#2.29 -897252875#0 -897252875#0.4 -897252875#0.15 -897252875#0.35 -45344336#9 -45344336#9.10 -45344336#9.61 -45344336#9.126 -45344336#9.147 -45344336#8 -45344336#8.20 -45344336#8.27 -45344336#8.33 -45344335#8 -45344335#7 -45344335#5 -45344335#4 -45344335#3 -45344335#2 -699875131#1 699875130#0 699875130#0.20 699875130#1 -897252883#1 -897252883#0 -897252883#0.7 -897172091#1 -897172091#0 -45344294#6 -45344294#6.9 -45344294#6.25 -45344294#5 -45344294#5.7 -951370959 -951370959.20 -951370959.22 -951370959.23 -951370959.27 -951370959.28 -951370959.29 -951370959.30 -951370959.31 897252858#0 951370960 951370961#1 -897252850#3 -897252849 -951370962 -951370962.12 -951370962.22 -951370962.34 -951370962.43 -951370962.49 -951370962.56 45344304#3 45344304#3.13 -45344286#12 -45344286#11 951404497 951404497.20 951404497.26 951404497.33 951404497.38 951404497.43 -897252855#0 -45344287#0 -45344287#0.5 -45344287#0.14 -45344286#7 -45344286#6 -45344286#6.52 -45344286#4 -45344286#4.11 -45344286#3 -45344286#3.9 -45344286#3.30 -45344286#3.45 -45344286#2 -45344286#2.12 -45344286#2.42 951440588 951440588.19 951440588.23 951440588.28 951440588.33 951440588.54 951440588.59 951440588.67 951440588.90 951440588.105 951440588.109 951440588.113 951440588.119 951440588.124 951440588.129 951440588.138 951440588.140 951440588.143 951440588.148 951440588.162 951440588.168 951440588.174 951440588.183 951440588.193 951440588.221 951440588.225 951440588.229 951440588.234 951440588.238 951440588.244 951440588.248 951440588.251 951440588.254 951440588.258 702632122#3 -702632123#3 -702632123#2 -702632123#1 -702632123#1.4 -702632123#0 45344272#13 45344272#13.4 45344272#13.35 45344298 896892974 971495602#11 971495602#12 971495602#12.26 971495602#12.77 951442813 951442812#0 -896786335#50 -896892981#13 -896892981#13.5 -896892981#13.13 -896892981#12 951354780 951354780.16 951354780.26 -896786335#47 -896786335#46 -896786335#44 -896786335#44.9 -896786335#44.71 -896786335#43 -896786335#42 -896786335#42.22 -896786335#41 -896786335#40 -896786335#39 -896786335#39.27 -896786335#37 -896786335#36 -896786335#34 -896786335#33 -896786335#32 -896786335#32.17 -896786335#31 -896786335#31.22 -896786335#30 45378649#0 45378649#0.36 -951354765#1 -951354765#1.60 -951354765#1.64 -951354765#1.67 -951354765#1.70 -951354765#1.74 -951354765#1.99 951354763#1 -951358824#0 -951358824#0.36 -951358824#0.42 -951358824#0.47 -951358824#0.59 -951358824#0.67 -951358824#0.72 -951358824#0.78 -896786335#27 -896786335#27.19 -896786335#26 -951995494#1 -951995491#2 -951995491#1 -951995491#0 -896786266#12 909024250#0 909024249 909024249.20 909024249.72 -896786335#19 -896786335#18 -896786335#17 -896786335#17.2 909024245 909024245.31 909024245.51 909024245.75 909024250#5 -909024246 -909024246.27 -909024246.63 -909024246.70 -909024246.79 -896786335#15 -896786300#3 -896786300#3.27 -896893012#1 -896893012#0 -896893012#0.11 896786303#5 896786303#5.27 896786303#5.100 896786303#5.124 896786303#6 896786303#6.29 896786302#1 896786304#6 951983587#7 951983587#8 -896786303#1 -896786303#1.61 -896786303#0 -896786311#12 -896786311#12.40 -951976011#1 -951976011#0 896786321#2 -896786320#3 -896786320#3.5 951976009#0 -951976006#2 -951976006#1 -951976008 896786319#2 896786319#4 896786317#2 896786317#2.28 896786317#3 896786317#3.44 -896786335#3 -896786335#3.10 -896786335#2 -896786335#1 -896786335#1.14 951976000#0 -951975999 951946833#0 951946816#12 951946816#13 951946816#13.22 951946816#13.26 -951946803#1 -951946803#1.55 -951946803#1.59 -951946803#1.61 -951946803#1.64 951946795#1 951946795#2 951946795#3 951946795#4 -951946799 951951639#9 -951946798#1 -951951638#3 952000398 951946796#0 951946796#1 951946795#10 951946795#11 951946795#11.34 951946795#11.40 951946795#11.45 -951887683 -951887684 -951887682#6 -951887682#5 -951887682#4 951887687#0 951887687#0.26 951887688#0 951887689 951961234#0 951961234#1 -951878265#2 -951878265#1 -951878266#5 -951878266#5.22 -951878266#5.29 -951878266#5.37 -951878266#4 -951878266#4.37 -951878266#2 -951878266#1 -951878266#1.39 -951878266#1.47"/>
</vehicle>
<vehicle id = "veh20" type= "veh_passenger" depart="21630" >
<route edges =" -45342801#4 45342799#23 951370988 951370988.6 951370988.11 951370988.16 902433317#6 -951368597 45342799#26 45342799#27 45342799#27.15 45342799#27.20 45342799#27.25 45342799#27.36 972507120#0 -903341083#3 -903341083#2 -903341083#1 -951368605#2 -951368605#1 -951368605#0 45342811#1 45342811#2 45342811#2.66 45344273#23 45344273#23.11 -951379890#1 -951379890#1.37 -951379890#1.47 -951379889 -951379889.17 -951379889.23 -951379889.29 -951379889.36 -951379889.42 -897252873#1 -897252873#1.42 -897252873#0 -897252873#0.25 897252876#4 45344320#2 -45344329#7 -45344329#6 -45344329#5 -45344329#4 -45344329#3 -45344324#0 897252876#10 -45344293#3 -45344293#2 -45344293#2.10 -45344293#2.11 -45344293#2.12 -45344293#2.14 -45344293#2.15 -45344293#2.16 -45344293#2.18 -45344293#1 -45344293#1.78 -45344293#0 -45344273#13 -45344273#12 -45344273#11 -45344273#10 -45344273#10.42 -45344273#9 -45344273#8 -45344273#8.10 -45344273#7 -45344273#7.22 -951384596#1 -951384596#1.24 -951384596#1.31 -951384596#1.36 -951384596#1.46 -951384596#1.54 -951384596#1.60 -951384596#1.72 -951384596#1.107 -951417467 -951417467.14 -951417467.15 -951417467.17 -951417467.18 -951417467.21 -951417467.23 -951417467.24 -951417467.25 951384598#2 -951384597 -951384597.29 -951384597.36 -951384597.43 -45344273#3 -45344273#3.6 -45344273#3.14 -45344273#3.31 -45344273#3.48 -45344273#2 -45344273#2.6 -45344273#2.24 -45344273#1 -45344273#1.7 -45344273#0 -897252881 -45378637#10 45378639#7 -951404483#2 -951404484#9 -951404484#9.20 -951404484#8 -951404484#6 -951404484#5 951404481 45378639#10 45378639#11 -951404475 -951404475.33 -951404475.43 -951404476 -951404476.16 -951404476.32 -951404476.50 -951404476.59 -951404476.68 -951404476.84 -951404476.93 -951404476.101 -951404476.106 -951404476.113 971495602#7 971495602#7.32 971495602#7.56 971495602#8 971495602#8.24 971495602#8.86 -313316104#6 -313316104#5 -313316104#5.12 -313316104#5.27 -313316104#5.46 -313316104#4 -313316104#4.4 -313316104#4.18 -313316104#4.31 -313316104#4.41 -313316104#4.56 -313316104#3 -313316104#2 -313316104#2.13 -313316104#2.35 -313316104#2.44 -313316104#1 -313316104#0 -313316082 -45378649#12 896786296#0 -951355298#2 -951355298#2.7 -951355298#2.9 -951355298#2.11 -951355298#2.15 -951355298#2.38 -951355298#2.43 -951355298#1 -951355298#1.5 -951355298#1.10 -951355298#0 -951355298#0.4 -951354759#1 -951354759#1.6 -951354759#0 -951354759#0.4 -951354759#0.15 -951354759#0.20 -951354759#0.24 -45378649#5 -45378649#5.24 -45378649#5.57 -45378649#5.68 951354762#0 951354762#0.9 951354762#0.12 951354762#0.15 951354762#0.18 951354762#0.94 951354762#0.96 951354762#0.97 951354762#0.99 951354762#0.100 951354762#0.102 951354762#0.106 951354762#0.107 951354762#0.109 951354762#0.110 951354762#0.112 951354762#0.127 951354762#0.129 951354762#1 951354762#1.1 951354762#1.3 951354762#1.20 896786263#1 896786263#2 896786263#2.22 896786263#4 -951358821#2 -951358821#2.84 -951358821#2.87 -951358821#2.89 -951358821#2.91 -951358821#2.98 -951358821#1 -951358821#0 -951358821#0.3 -951358821#0.6 -951358821#0.9 -951358822#0 -951358822#0.4 -951358822#0.8 -951358822#0.13 -951995493#1 951354763#5 951995492#1 -896786265#0 909024253#0 951995490#0 951995490#1 951995490#1.10 951995490#1.14 951995490#1.17 951995490#1.20 -909024243#1 -909024243#1.11 -909024243#1.69 -909024243#1.72 -909024243#1.74 -909024243#1.78 -909024243#0 909024244#1 909024244#1.7 909024244#1.41 909024244#1.69 -909024251 -909024251.41 -896786293#5 -896786293#5.20 -896786293#4 -896786293#3 -896786293#3.1 -45378665#2 -45378665#2.36 -45378665#1 909024239#0 909024239#1 909024239#1.17 -909024237#1 -909024237#1.34 -909024237#1.71 -909024237#1.74 -909024237#1.78 -909024237#1.82 877398366#1 877398366#1.15 877398366#2 877398366#2.36 877398366#3 877398366#4 -904371457 904371458#0 904371458#0.18 904371458#1 -877396860#4 -896786328#3 -896786328#3.70 904371467#0 904371464 896786325#1 -896786328#1 -896786328#0 -896786328#0.177 -877395784#20 -877395784#19 -951946816#15 -951946816#14 -951946816#13 -951946816#13.3 -951946816#13.8 -951946816#12 -951946816#11 -951946816#10 -951946816#9 -951946816#7 -951946820#1 -951946820#0 951946819#1 -951946818#2 -951946818#0 951946833#9 951946833#9.22 -951951630 -951946806#1 -951946806#1.48 -951946806#1.55 -951946806#1.61 -951946806#1.69 -951946806#1.82 -951946806#1.90 -951946806#1.98 -951946806#0 -952365020 -952365021 -951878231#2 -951878231#1 -951878231#1.26 -951868611#0 -951951643#4 -951951643#3 -951951646 -951951642#2 -876509484#2 -951951643#1 951951648#0 951951649 951878263#7 951878263#8 951878230#4 -951891772#4 -951961237 -951891766#2 -951891766#2.2 -951891766#2.6 -951891766#2.10 -951891766#2.15 951891769#0 951891769#0.18 951891769#0.24 951891769#0.29 951891769#0.46 951891769#0.50 -951891768 -950288028#1 -950288028#0 -951878269#4 951878272#0 951878272#1 951887654#2 951887654#3 -951891764#1 951891763#0 951891763#1 -951887659#1 -951887660#5 -951887660#3 -951887662 951887661#2 951887661#3 951878266#0"/>
</vehicle>
</routes>
