<?xml version="1.0" encoding="UTF-8"?>
<routes xmlns:xsi="http: // www.w3.org/2001/XMLSchema-instance" xsi:noNamespaceSchemaLocation="http: // sumo.dlr.de/xsd/routes_file.xsd">
<vType id="veh_passenger" vClass="passenger"/>

<vehicle id = "veh0" type= "veh_passenger" depart="0" >
<route edges =" -813722269#3 -813722269#3.7 -813722269#3.48 -813722269#3.84 -813722269#3.86 620762213#0 620762213#0.9 620762213#0.88 620762212#0 620762212#0.8 620762212#0.52 6343949#6 6343949#7 6343949#8 6343949#8.52 6343949#10 6343949#10.49 6343949#12 6343949#12.47 -525497324#3 -525497324#2 243349944#4 243349944#4.53 243349944#6 243349944#7 -460419011#3 -460419011#2 6464126#3 6464126#3.49 6464126#5 -460419028#3 243349338#0 243349338#0.18 243349338#1 243349338#2 243349338#3 243349338#3.49 243349338#5"/>
</vehicle>
<vehicle id = "veh1" type= "veh_passenger" depart="0" >
<route edges =" -6457203#16 -6457203#16.59 975126260#0 975126260#0.49 -6505136#16 6368504#5 6368504#5.48 6368504#7 6368504#7.50 -6513783#8 -6513783#7 37657905#3 37657905#3.48 37657905#5 37657905#5.10 37657905#5.46 37657905#7 37657905#7.49 476409329 -6383185#5 6384373#1 6384373#2 6384373#2.45 6384373#2.56 -65588097#1 -65588097#1.119 337818330 6463035#0 6463035#0.14 6463035#0.38 6463035#3 -6495801#0 -185485132#12 -185485132#12.125 -185485132#11 -185485132#11.16 243349945#9 243349945#9.50 -6494975#8 -6494975#7 -6494975#6 -6494975#6.81 256994205#3 428246847#0 428246847#0.8 428246847#0.22 6386110#0 6386110#0.16 6386110#0.25 6386110#0.55 -243349338#6 -243349338#6.14"/>
</vehicle>
<vehicle id = "veh2" type= "veh_passenger" depart="0" >
<route edges =" -6522868 -6403883#7 -6403883#6 -6403883#5 -6403883#4 -6403883#3 -6403883#2 158882505#7 158882505#8 8111709#0 8111709#0.47 8111709#2 8111709#2.49 8111709#4 8111709#4.49 -6513783#5 6384359#8 6384359#9 6384359#9.26 -6381494#3 -6381494#3.43 6463017#6 6463017#6.48 -6386837#0 337739268 337739268.124 337739267#0 337818462 337818462.3 337818462.6 337739271#1 337739271#1.6 337739269#0 -460419011#4 243349944#8 -801995081#5 -801995081#5.197 -801995081#5.209 -801995081#2 -801995081#2.109 -801995081#0 243339793#4 243339793#5 243339793#6 243339793#6.50 243339793#6.74 -22917112 -185485118#1 6514312#0 6514312#0.70 -6523501#6 -6523501#6.6 185485127#1 -6494970#4 -6494970#4.172 -6494970#2 -6494970#2.4 -6494970#2.100 6358721#0 6358721#0.9 6415147#4 6415147#5 6415147#6 6351349#2 6351349#3 6351349#3.107 6351349#5 -185483733 -6414318#4 -157167355#0"/>
</vehicle>
<vehicle id = "veh3" type= "veh_passenger" depart="0" >
<route edges =" 817434294 817434294.10 817434294.36 817434294.44 817434294.63 817434294.119 6343949#0 6343949#0.7 6343949#0.86 6343949#3 6343949#3.9 6343949#3.49 620762212#3 6430729#6 6430729#6.47 6430729#6.48 6430729#9 6430729#9.48 6430729#11 6430729#11.51 6430729#13 6430729#13.48 6430729#15 6430729#15.48 6430729#17 6430729#17.51 -620762224#0 -66558981#7 -66558981#7.65 -66558981#7.83 -66558981#7.105 -66558981#7.123 -66558981#2 -66558981#2.131 -66558981#2.234 525497323#2 525497323#2.81 -481291488#2 -481291488#1 -481291488#0 -481291488#0.69 -481291488#0.82 -6447971#10 -6447971#10.11 -6447971#9 -6447971#8 -6447971#7 -6447971#6 -6447971#5 -6447971#4 169917351#6 169917351#7 169917351#7.49 169917351#9 169917351#9.48 169917351#9.87 169917351#12 169917351#12.9 169917351#12.42 169917351#12.90 -6360239#3 -6360239#3.6 -6360239#3.69 -6360239#3.102 6487445#0 6487445#0.8 6415147#0 6415147#0.61 6449462#3 6449462#3.7 6449462#3.50 6449462#3.60 6449462#3.72 6449462#3.87 795669782#0 795669782#0.54 795669782#2 6371720#2 6371720#3 157167355#0"/>
</vehicle>
<vehicle id = "veh4" type= "veh_passenger" depart="3605" >
<route edges =" -813722269#3 -813722269#3.7 -813722269#3.48 -813722269#3.84 -813722269#3.86 569505974#0 569505974#0.10 569505974#0.37 816616073#0 816616073#0.78 6343949#3 6343949#3.9 6343949#3.49 6343949#6 -65588100#1 -65588100#1.65 57883609#3 57883609#3.43 57883609#3.52 57883609#3.60 57883609#3.80 179551719 179551719.37 179551719.46 179551719.51 179551719.88 179551719.93 179551719.97 739843348#0 739843348#0.4 739843348#0.9 620762218#0 620762218#0.55 620762218#0.66 620762218#0.68 620762218#0.81 620762218#3 620762218#3.7 -525497324#2 -525497324#1 -525497324#0 525497323#0 525497323#0.50 525497323#2 525497323#2.81 -481291488#2 -481291488#1 6464126#0 6464126#0.46 6464126#0.49 460419011#2 40416132#1 40416132#1.90 256994206#0 256994206#0.8 256994206#0.43 256994206#0.60 460419028#0 460419028#0.11 460419028#0.49 460419028#0.79 460419028#0.95 243349338#0 243349338#0.18 243349338#1 243349338#2 243349338#3 243349338#3.49 243349338#5"/>
</vehicle>
<vehicle id = "veh5" type= "veh_passenger" depart="3605" >
<route edges =" -6457203#16 -6457203#16.59 975126260#0 975126260#0.49 -6505136#16 6368504#5 6368504#5.48 -603522174#0 603522173#0 603522173#0.48 -6513783#9 -6513783#8 -170683231#20 -170683231#20.51 6381494#12 6381494#12.56 6368504#12 6368504#12.37 6368504#12.47 6368504#15 6368504#15.40 6368504#15.46 6368504#15.67 791722143#0 791722143#0.9 170683231#12 170683231#12.36 170683231#12.50 170683231#12.64 -336904472#4 -336904472#4.96 37657905#7 37657905#7.49 476409328#0 476409328#0.201 476409328#2 476409328#2.118 8071925#0 8071925#0.9 8071925#0.55 8071925#2 8071925#2.36 8071925#2.74 6460085#0 6460085#0.9 6460085#0.43 6460085#0.101 6460085#2 6460085#2.86 6464374 65588097#4 65588097#4.20 170683231#7 6460085#6 6460085#6.62 6460085#7 6460085#7.14 6460085#7.41 6345330#0 -65588097#8 -65588097#8.39 476409332#5 -6448612#8 -6448612#7 -6448612#7.6 -6448612#5 -6448612#5.30 -428315592#2 -428315592#2.25 -428315592#2.67 -428315592#2.108 6463035#0 6463035#0.14 6463035#0.38 6463035#3 -6495801#0 -185485132#12 -185485132#12.125 805658294#0 805658294#0.38 805658294#0.52 6494975#10 6494975#10.11 6494975#10.19 805680044#10 -243349942#2 -243349942#1 -243349942#1.104 -243349945#12 -243349945#12.49 -6494975#8 -243349944#18 -243349944#18.47 185485132#10 -243349945#8 -243349945#8.11 -243349945#8.51 -243349945#5 -243349945#5.47 -243349945#5.52 -243349945#5.91 -6360256#9 -6360256#9.6 -6360256#7 -6360256#7.5 -6360256#5 256994205#0 256994205#0.67 256994205#1 185485132#7 185485132#7.51 6447445#7 6447445#7.46 -6494975#6 -6494975#6.81 256994205#3 428246847#0 428246847#0.8 428246847#0.22 6386110#0 6386110#0.16 6386110#0.25 6386110#0.55 -243349338#6 -243349338#6.14"/>
</vehicle>
<vehicle id = "veh6" type= "veh_passenger" depart="3605" >
<route edges =" 6457203#17 -6428544#18 -6428544#18.43 -6428544#18.144 -6428544#15 -6428544#15.8 -6428544#13 32143939 -263668130#2 -263668130#2.17 -263668130#2.32 -263668130#2.43 -263668130#2.52 -263668130#2.58 -263668130#2.67 -263668130#2.74 -263668130#2.85 -6346524#6 -6346524#6.24 -6346524#6.38 8071379#0 8071379#0.46 8071379#2 8071379#2.41 -160552467#10 -160552467#10.17 -160552467#10.28 -160552467#10.38 -158882511#4 -6411908#4 -158882517#2 -158882517#1 -158882517#0 158882558 621283351#0 621283351#0.54 621283351#0.62 6464391#0 6464391#0.12 6464391#0.77 752851600#8 752851600#8.6 752851600#8.88 752851600#11 752851600#11.84 752851600#13 752851600#13.62 -8071894#3 -8071894#2 -6358524#12 -6358524#11 -6358524#11.47 -6358524#11.63 -6358524#8 -6358524#8.71 -6358524#8.120 6464391#6 6464391#6.5 6464391#6.66 -6374789#8 -6374789#8.5 -6374789#8.120 6384350#12 6384350#12.6 6384350#12.22 6384350#12.25 6384350#12.26 6384350#12.30 6384350#12.34 6384350#12.43 6384350#12.47 6384350#12.53 6384350#12.55 6384350#12.58 6384350#12.61 6384350#12.70 171739214#0 171739214#0.4 171739214#0.56 -752851600#3 -752851600#3.6 -752851600#3.8 -752851600#3.9 -752851600#3.49 -752851600#3.56 -6384942#1 -6384942#1.10 331930455#0 331930455#0.9 331930455#0.42 331930455#0.49 331930455#0.60 331930455#0.86 428246435#0 428246435#0.10 428246433 428246433.72 428246432#0 428246432#0.13 171739214#8 171739214#9 -337668911#3 -337668911#3.39 -337668911#3.92 -337668911#3.122 6400834#0 6400834#0.8 6400834#0.121 65588084#0 65588084#0.8 65588084#0.88 -816616072#10 -816616072#10.7 -816616072#10.121 6430729#0 6430729#0.7 6430729#0.86 813722270#5 813722270#5.7 813722270#5.118 6411908#0 6411908#1 6411908#1.103 6411908#1.111 -171739214#13 6346524#0 158882505#3 158882505#4 158882505#4.31 -160552467#7 -160552467#7.43 -160552467#7.73 -160552467#7.78 171739214#15 171739214#15.31 171739214#15.57 6403883#1 158882505#7 6469837#2 6469837#3 6469837#4 6469837#4.92 6368504#1 6368504#1.33 -6457203#13 -6457203#13.26 -6457203#11 -6457203#11.20 -6457203#11.36 -6457203#11.44 -6457203#11.89 -6457203#11.100 8111708#0 8111708#0.2 8111708#0.5 8111708#0.7 8111708#0.9 8111708#0.12 8111708#0.14 8111708#0.45 8111708#0.50 -6505136#13 -6505136#13.115 -6505136#12 -6505136#12.73 -6505136#12.84 -6505136#12.102 -6505136#12.111 -6505136#12.122 -6505136#6 -6505136#6.18 6463017#0 6463017#0.48 6464042#2 6464042#2.9 6384359#6 6384359#6.48 6384359#8 6384359#9 6384359#9.26 -6381494#3 -6381494#3.43 6463017#6 6463017#6.48 -6386837#0 292812445#11 292812445#11.49 481291015#0 481291015#0.20 481291015#0.59 -343521145#3 -343521145#3.32 -343521145#3.66 -343521145#3.101 -343521145#3.142 -343521145#3.155 337739267#0 337739267#1 337739271#0 337739271#0.10 337739271#0.13 337739271#1 337739271#1.6 337739269#0 337739269#1 337739269#1.30 337739269#3 337739269#3.69 396055523#5 396055523#5.8 396055523#5.42 396055523#7 396055523#7.122 -243349944#9 -243349944#8 -460419011#3 -460419011#2 6464126#3 6464126#3.49 6464126#5 6464126#6 -6360256#1 -6360256#1.102 -6360256#0 -6360256#0.8 -353690153#2 -353690153#2.9 -353690153#2.71 -353690153#2.88 -481291014#1 -481291014#1.20 -6380913#14 -6380913#13 6425675 460419024#5 460419024#5.50 460419024#5.63 460419024#5.69 -621319697#3 -621319697#3.10 -621319697#3.29 -621319697#3.34 -621319697#3.38 -460419008#1 -460419008#1.44 -263669069#2 -263669069#2.25 -263669069#2.47 -263669069#2.55 -6447971#7 6463532#0 6463532#0.49 6463532#2 6463532#2.50 6463536#0 6463536#0.21 6463536#0.30 6463536#0.40 6463536#0.47 6463536#0.52 6463536#0.58 6463536#0.69 6463536#0.79 6463536#0.80 6516509#4 6516509#4.6 6516509#4.33 6516509#4.47 6516509#4.52 6516509#4.66 6516509#4.84 6467507#10 6467507#10.9 6467507#10.76 6467507#10.86 -6360239#9 -6360239#9.84 6507809#13 6507809#13.9 6507809#13.77 6452520#6 6452520#6.7 185485127#0 -6523501#4 -6523501#4.175 -6523501#2 -6523501#2.5 -6523501#2.101 460421482#3 460421482#3.8 460421482#3.48 460421482#3.55 460421482#3.72 6358721#0 6358721#0.9 6415147#4 428247193#3 428247193#3.27 486632638#0 486632638#0.14 486632638#0.27 -428247197#1 -428247197#1.9 -336908264#3 -169917351#27 -169917351#27.11 -169917351#27.76 6494970#3 6494970#3.7 6494970#5 6494970#5.205 6494970#7 481291012#5 481291012#5.49 481291012#7 481291012#7.20 428246846 428246846.12 428246846.24 428246846.37 926425193#0 926425193#0.8 926425193#0.43 926425193#0.84 926425193#0.95 926425193#1 926425193#1.12 926425193#1.24 926425193#1.34 926425193#2 926425193#2.6 926425193#2.94 926425193#2.182 926425193#2.204 926425193#2.206 185485127#4 185485127#4.10 -6391682#2 -6391682#2.31 -6391682#2.42 -6391682#2.52 -6391682#2.64 6507813#0 6507813#1 6507813#1.41 6507813#1.49 -6501822#1 -6501822#0 -6501822#0.165 256996977#8 620762211#0 620762211#0.4 620762211#0.8 620762211#0.77 -6415147#8 -6415147#7 -6415147#6 6489809#2 -295783215#1 14374224#0 14374224#0.36 14374224#0.80 14374224#0.83 256997441#3 256997441#3.6 256997441#3.53 -6351349#4 -6351349#4.8 642753173 6354836#3 6354836#4 6354836#5 6354836#5.54 6354836#7 6354836#7.92 -6467368#3 -6467368#2 -661086629#2 -661086629#2.7 -6371720#6 -185483738#0 -6414318#4 -157167355#0"/>
</vehicle>
<vehicle id = "veh7" type= "veh_passenger" depart="3605" >
<route edges =" 817434294 817434294.10 817434294.36 817434294.44 817434294.63 817434294.119 6343949#0 6343949#0.7 6343949#0.86 813722270#0 813722270#0.7 813722270#0.42 813722270#0.74 813722270#0.75 813722270#0.121 6430729#3 6430729#3.9 6430729#3.48 6430729#6 6430729#6.47 6430729#6.48 -65588100#4 -65588100#4.73 -65588100#4.110 6343949#7 -8071898#2 6430729#11 6430729#11.51 -65588093#2 6343949#10 6343949#10.49 6440348#11 6440348#11.4 6440348#11.7 6440348#11.62 6440348#11.73 6440348#14 6464042#0 6464042#0.76 6463017#2 6463017#2.44 6463017#2.48 -6513783#1 -6513783#1.10 962517344 962517344.33 -6381494#0 -620762224#1 -620762224#0 -66558981#7 -66558981#7.65 -66558981#7.83 -66558981#7.105 -66558981#7.123 -66558981#2 -66558981#2.131 -66558981#2.234 -6481166#12 -6481166#11 -6481166#11.122 -6481166#11.125 -6481166#10 -6481166#10.6 -6481166#10.8 -6481166#10.120 353690154#15 353690154#15.50 -6447971#10 -6447971#10.11 -486874837#1 -6481166#8 -6481166#8.162 -6481166#6 6467507#3 -6447971#5 -6507809#3 -6507809#2 -6507809#2.9 -6507809#2.91 -901477546#2 -901477546#2.6 -901477546#2.45 -901477546#2.87 -901474740#3 -901474740#3.7 -901474740#3.53 -901474740#3.61 -901474740#3.102 256996974#11 256996974#11.6 256996974#11.33 256996974#11.65 256996972 256996972.16 256996972.70 256996978#0 256996978#0.7 256996978#0.68 256996973#0 256996973#0.33 256996973#0.45 256996973#0.49 6385341#0 6385341#0.19 6385341#0.20 6385341#0.34 6385341#0.47 6385341#0.50 6385341#0.54 6385341#0.58 6385341#0.73 6385341#0.78 6385341#0.81 6385341#0.84 6385341#0.87 6385341#0.126 6385341#0.138 6384260#2 -6461236#2 -6461236#2.90 -6461236#2.92 -6461236#2.106 -6461236#2.126 -6461236#2.141 256996976#0 256996976#0.11 256996976#0.20 256996976#0.46 256996976#0.79 6487445#0 6487445#0.8 6415147#0 6415147#0.61 6449462#3 6449462#3.7 6449462#3.50 6449462#3.60 6449462#3.72 6449462#3.87 795669782#0 795669782#0.54 -6414318#0 -6414318#0.76 -6414318#0.81 460418987#0 460418987#0.4 460418987#0.8 -6414273#1 -6414273#1.22 -460418992#4 -460418992#4.6 -460418992#4.125 6371704#1 6371704#1.36 -460418987#2 6371720#0 6371720#0.7 795669782#3 795846818#0 795846818#0.1 -460418978#2 -460418978#2.5 -460418978#2.73 22917667#0 22917667#0.7 22917667#0.103 22917670#7 22917670#7.7 22917670#7.71 22917670#10 22917670#10.5 22917670#10.34 481291010#3 481291010#3.6 481291010#3.100 369455641#1 369455641#1.28 369455641#1.78 512126021#0 512126021#0.7 512126021#0.31 512126021#0.66 157167355#0"/>
</vehicle>
<vehicle id = "veh8" type= "veh_passenger" depart="7210" >
<route edges =" -813722269#3 -813722269#3.7 -813722269#3.48 -813722269#3.84 -813722269#3.86 620762213#0 620762213#0.9 620762213#0.88 57883609#0 57883609#0.6 57883609#0.57 -826314455#3 -826314455#3.64 -826314455#3.71 -826314455#3.76 -826314455#3.90 -826314455#3.118 825336588#0 825336588#0.7 96029553#0 96029553#0.9 96029553#0.15 96029553#0.59 8071900#0 8071900#0.7 8071900#0.18 8071900#0.88 8071900#4 8071900#4.7 8071900#4.49 8071900#4.88 8071900#8 8071900#8.6 8071900#8.7 8071900#8.49 8071900#8.53 525497324#1 243349944#4 243349944#4.53 -66558981#2 -66558981#2.131 -66558981#2.234 -6481166#12 -6481166#11 -6481166#11.122 -6481166#11.125 6464138#14 -481291488#1 -481291488#0 -481291488#0.69 -481291488#0.82 243339793#0 243339793#0.48 -460419011#0 -460419011#0.11 460419013#0 460419013#0.51 481291014#0 481291014#0.53 353690153#0 353690153#0.8 353690153#0.25 353690153#0.87 6360256#0 6360256#0.104 243339793#6 243339793#6.50 243339793#6.74 22917113#0 22917113#0.56 -6464126#8 -6464126#8.50 -6464126#6 -460419028#3 -460419028#2 -460419028#2.56 -460419028#2.72 -460419028#2.102 -460419028#2.140 396055524#0 396055524#0.9 396055524#0.30 396055524#0.54 396055524#0.65 -6360256#4 243349338#1 243349338#2 -185485132#4 6464126#11 6464126#11.50 6494975#2 243349338#5"/>
</vehicle>
<vehicle id = "veh9" type= "veh_passenger" depart="7210" >
<route edges =" 6457203#17 6457203#18 6457203#18.8 6457203#18.11 6457203#20 6457203#20.10 6457203#20.25 6457203#20.27 242516209#0 242516209#0.45 157284449#1 6363153#1 6363153#2 6363153#3 6363153#3.40 6363153#3.50 6363153#3.56 392673856 392673856.85 -933598957 -933598957.13 945555824#2 945555824#2.47 481291019#0 481291019#0.47 481291017#0 481291017#0.46 481291017#2 481291017#2.37 481291017#2.43 481291017#2.49 481291017#2.51 481291017#2.59 481291017#2.71 481291017#2.87 481291017#2.112 481291017#2.124 8071885#2 6483146#0 6483146#0.10 6483146#0.15 6483146#0.49 6483146#0.58 6483146#0.67 -394736758#4 -394736758#4.104 -481291021#6 -481291021#6.10 -481291021#6.14 -481291021#6.20 -481291021#6.36 -481291021#6.79 -481291021#6.92 -481291021#6.102 -481291021#6.112 -481291021#6.122 -481291021#6.133 -481291021#1 6444679 481291024#0 481291024#1 481291024#1.68 481291024#1.82 -179553345#6 -179553345#6.47 -179553345#6.49 -179553345#6.105 -179553345#6.124 -179553345#6.150 -179553345#6.182 -179553345#6.190 -179553345#6.201 -179553345#6.204 394737317#1 394737317#1.24 394737317#1.48 -394736763 -6448615#9 -6448615#8 -6448615#7 -6428555#3 -6428555#3.49 -6428555#3.68 -6428555#3.83 394736758#7 394736758#7.27 394736758#7.94 394736758#7.106 394736758#7.114 -735164739 -735164739.6 -735164739.10 -735164739.15 735164738 735164738.9 735164738.37 735164738.47 735164736 735164736.7 735164736.13 735164737 735164737.10 735164737.15 6522860#0 6522860#0.11 -65588097#11 -65588097#11.42 -6523125#0 -6460085#10 -6460085#10.12 -6460085#10.42 -6460085#8 -6460085#8.39 -6460085#8.66 -476409332#3 -476409332#3.42 6383185#8 6383185#8.23 6383185#8.67 6383185#8.93 6383185#8.141 -476409333#1 -476409333#1.43 476409334#0 -603522176#7 -603522176#7.43 -638348588#0 -263666867#2 -263666867#2.43 -263666867#2.72 -6381494#14 -6381494#14.47 -6381494#14.172 -6368504#11 -6368504#11.50 -6368504#11.52 -6513783#8 -170683231#20 -170683231#20.51 -170683231#18 -170683231#18.37 -170683231#18.49 336904472#5 336904472#5.77 6368504#15 6368504#15.40 6368504#15.46 6368504#15.67 791722143#0 791722143#0.9 -170683231#11 -170683231#11.43 -6383185#6 61151096 6460085#5 6460085#5.26 -170683231#7 -170683231#6 -170683231#6.43 -170683231#6.51 -170683231#3 6495798#2 6495798#3 6345330#2 6345330#3 6345330#3.60 6345330#3.84 -6349125#2 -6349125#2.60 -6349125#2.61 -6349125#2.68 -6349125#2.76 -6349125#2.79 -476409332#11 -476409332#11.8 -6349126#4 -6349126#4.29 -6349126#4.47 -6349126#4.62 -6349126#4.68 -6349126#4.76 -6349126#4.79 -6349126#4.104 -854081622#0 -854081622#0.13 -19000995#2 -19000995#2.7 -19000995#2.29 6414237#0 6414237#0.11 6414237#1 -6353172#1 40416130#3 40416130#3.42 40416130#3.45 -243352868#1 -243352868#1.19 170683665#13 -6369950#2 -6369950#2.24 -6369950#0 -336908262#6 -336908262#5 -336908262#5.80 6353177#0 6353177#0.8 6353177#0.44 6353177#0.135 -6463035#11 -6463035#11.50 -6349133#0 -6472289#4 -805658294#5 -805658294#5.50 243349942#2 -805680044#10 6356676#0 6356676#1 -170683665#2 -170683665#2.49 -170683665#2.51 -170683665#2.95 -6495801#1 -6463035#3 6448612#2 6448612#2.70 6448612#4 6448612#4.11 -6384373#8 -6384373#8.6 -6384373#8.46 -6384373#8.57 -65588097#1 -65588097#1.119 337818330 -460421484#1 -460421484#1.13 -854082601 -854082601.46 -854082601.87 -169730574#1 -169730574#1.5 -169730574#1.6 -169730574#1.24 -537678339#1 -537678339#1.11 338701493#0 338701493#0.9 243334881#0 243334881#0.7 243334881#0.57 243334881#0.96 -6360256#15 -6360256#15.7 -6360256#15.133 361784407#0 361784407#0.8 361784407#0.38 361784407#0.53 22917113#8 22917113#8.9 22917113#8.12 22917113#8.134 805680044#5 805680044#5.6 805680044#5.49 -185485132#12 -185485132#12.125 -185485132#11 -185485132#11.16 243349945#9 243349945#9.50 243349945#11 243349945#11.47 243349945#13 243349945#13.48 -6472289#2 -243349944#22 -243349944#22.50 -22760521#3 -6447445#10 -6447445#10.48 6494975#7 -243349944#18 -243349944#18.47 -185485132#9 -6447445#6 -6447445#6.50 22917113#5 -243349944#14 -243349944#14.46 -243349944#14.49 -6360256#7 -6360256#7.5 -6447445#2 -6447445#2.7 -6447445#2.86 396055523#11 396055523#11.17 396055523#11.23 396055523#11.42 396055523#11.62 396055523#11.85 396055523#11.96 396055523#11.121 396055524#0 396055524#0.9 396055524#0.30 396055524#0.54 396055524#0.65 256994205#0 256994205#0.67 256994205#1 256994205#2 256994205#2.24 256994205#2.72 256994205#3 428246847#0 428246847#0.8 428246847#0.22 6386110#0 6386110#0.16 6386110#0.25 6386110#0.55 -243349338#6 -243349338#6.14"/>
</vehicle>
<vehicle id = "veh10" type= "veh_passenger" depart="7210" >
<route edges =" -6522868 -6403883#7 6323849#5 6323849#5.107 -6457203#15 -6457203#15.22 -6457203#14 -6457203#14.67 -6368504#2 -6368504#2.43 -6368504#0 -6403883#4 -158882511#7 -158882511#7.20 -158882511#7.33 -160552467#9 158882517#4 -6403883#2 -158882505#6 -158882505#5 -158882505#5.47 -158882505#3 6346524#1 6346524#2 -158882511#2 -158882511#2.44 -158882511#0 -621283354 428098985#0 428098985#0.19 428314460 428314467 428314467.7 428098986 428098986.8 428098986.12 6470834 6470834.1 6470834.5 6470834.9 462701467#0 462701467#0.142 -8071895#1 -8071895#0 -6358515#0 8071894#1 -6358524#12 -6358524#11 -6358524#11.47 -6358524#11.63 -6414229#11 6374789#11 6374789#11.72 -6346308#5 -6346308#5.48 -749754758#9 -749754758#9.120 -749754758#7 -749754758#7.3 -749754758#7.122 -749754758#4 -749754758#4.4 -749754758#4.120 -6384350#7 -6384350#7.9 -6384350#7.49 -6384350#7.88 -6384350#3 -6384350#3.9 -6384350#3.48 -6384350#3.94 -6508650#2 -6508650#2.140 -6508650#2.252 436163947#0 436163947#0.8 436163947#0.75 460423542#0 460423542#0.9 6430733#0 460421473#2 460421473#2.62 621088608#0 621088608#0.43 621088608#0.48 6521205#0 6521205#0.2 6521205#0.12 6521205#0.21 6521205#0.31 6521205#0.34 6521205#0.47 6521205#0.59 6521205#0.69 6521205#0.81 6521205#0.92 749754754#0 749754754#0.11 -6374789#2 -6374789#2.29 -6374789#2.54 -6374789#2.90 -6474762#1 -6474762#1.50 -8071579 6430733#3 6430733#3.48 -6349123#8 6343952#3 6343952#3.71 6343952#3.75 6461453#11 6461453#11.55 6461453#11.69 6461453#11.115 6461453#11.128 6461453#17 6461453#17.40 6461453#17.73 6461453#17.80 6474762#3 6474762#3.35 6474762#3.38 6474762#3.42 6474762#3.46 6474762#3.49 6474762#3.54 95600805#0 95600805#0.117 -548654006#1 -548654006#1.9 -548654006#1.38 -548654006#1.47 -548654006#1.55 6358524#0 6358524#0.10 6358524#0.125 6358524#3 6358524#3.6 6358524#3.97 -6464391#5 -6464391#5.5 -6464391#5.73 -6464391#2 -6464391#2.4 -6464391#2.68 -428098984#1 -428098984#1.6 -428098987#2 -428098987#2.4 -428098987#2.32 -428098981 171739214#8 8071890#0 8071890#0.56 158882505#0 158882505#0.42 -6368665#1 -6368665#1.49 -6368665#1.91 -6368665#1.93 171739214#11 171739214#12 171739214#13 -6411908#1 -6411908#1.18 -6411908#1.26 337668916#6 337668916#6.37 337668916#6.48 160552467#1 160552467#1.43 160552467#1.66 160552467#1.99 160552467#1.104 160552467#1.111 171739214#15 171739214#15.31 171739214#15.57 171739214#20 6469837#0 6469837#0.39 6469837#2 6469837#3 158882511#9 158882511#9.51 8111707#0 8111707#0.47 -6505136#14 -6505136#13 -6505136#13.115 8111709#2 8111709#2.49 6464042#8 6464042#8.123 37657905#0 37657905#0.5 37657905#0.47 37657905#3 37657905#3.48 -6381494#8 -6381494#8.122 -6381494#8.124 -6381494#6 -6381494#6.57 -6381494#6.77 -6381494#6.94 -6381494#3 -6381494#3.43 -6381494#1 -6381494#0 292812445#9 292812445#9.49 6386837#0 6386837#1 8071897#0 8071897#0.89 -6444677 481291015#0 481291015#0.20 481291015#0.59 -343521145#3 -343521145#3.32 -343521145#3.66 -343521145#3.101 -343521145#3.142 -343521145#3.155 337739267#0 337818462 337818462.3 337818462.6 337739271#1 337739271#1.6 337739269#0 -460419011#4 243349944#8 243349944#9 396055523#9 396055523#9.6 396055523#9.20 396055523#9.54 396055523#11 396055523#11.17 396055523#11.23 396055523#11.42 396055523#11.62 396055523#11.85 396055523#11.96 396055523#11.121 460419028#0 460419028#0.11 460419028#0.49 460419028#0.79 460419028#0.95 460419028#3 460419028#4 243339793#5 -6360256#0 -6360256#0.8 486875123#0 486875123#0.56 486875123#0.88 481291012#0 481291012#0.24 481291012#0.32 185485132#2 185485132#2.104 243339793#11 243339793#11.47 6494975#1 6494975#1.9 6464126#13 6464126#13.49 6386110#4 6386110#4.26 243339793#15 243339793#15.46 -6472293#6 -6472293#6.7 -8071924#3 -8071924#3.39 -8071924#3.51 -6391677 -926425191#3 -926425191#2 -926425191#1 -926425191#1.73 -6523501#6 -6523501#6.6 185485127#1 -6494970#4 -6494970#4.172 -6494970#2 -6494970#2.4 -6494970#2.100 6358721#0 6358721#0.9 6415147#4 6415147#5 -6489809#1 -6489809#1.47 -256996977#2 -256996977#2.16 -256996977#2.48 -428247197#1 -428247197#1.9 -336908264#3 -336908264#2 -336908264#2.145 185485127#4 185485127#4.10 185485127#6 185485127#7 185485127#7.45 185485127#7.50 6501822#3 6501822#4 6501822#5 6501822#5.157 8071924#5 259277920#0 259277920#0.29 259277920#0.47 6449970#8 6449970#9 6336174#4 6506505#5 6464130#5 -243349331#1 -243349331#1.102 6336174#6 -243349941#3 -243349941#2 -6425683#3 -6425683#3.40 -6425683#1 -6425683#0 -6449970#5 -185485117#3 -6396312#2 -6396312#1 -6396312#0 -6507818#0 -6501822#0 -6501822#0.165 -256996977#7 -256996977#7.12 -256996977#7.47 6351349#0 6351349#0.4 6351349#0.39 6351349#2 642753174 -6384264 -295783215#1 14374224#0 14374224#0.36 14374224#0.80 14374224#0.83 -256997441#2 -256997441#2.27 -256997441#2.71 -256997441#2.77 -428247194#1 -428247194#1.9 -428247194#1.28 -157167355#3 -157167355#3.5 -157167355#3.43 -157167355#0"/>
</vehicle>
<vehicle id = "veh11" type= "veh_passenger" depart="7210" >
<route edges =" 817434294 817434294.10 817434294.36 817434294.44 817434294.63 817434294.119 816616072#4 816616072#4.7 816616072#4.62 816616072#4.121 6430729#0 6430729#0.7 6430729#0.86 6430729#3 6430729#3.9 6430729#3.48 620762212#4 620762212#4.122 160552467#0 337668916#8 337668916#8.47 337668916#10 337668916#11 337668916#11.20 337668916#11.35 -292812446#5 -292812446#4 -292812446#4.6 -292812446#4.35 -292812446#4.44 -292812446#4.56 -292812446#4.99 -292812446#4.111 292812445#0 292812445#0.35 292812445#0.50 292812445#3 292812445#3.49 292812445#5 292812445#5.45 292812445#7 292812445#7.46 -620762224#1 -620762224#0 -620762218#5 -620762218#5.44 -620762218#5.106 -620762218#4 -620762218#4.108 -6440348#7 -6440348#7.9 243349944#0 243349944#0.4 243349944#0.20 243349944#0.49 -525497324#1 -525497324#0 -6512920#11 -6512920#11.12 -6512920#11.49 -6512920#11.62 -6512920#11.76 -6512920#11.147 -293775902#11 -293775902#11.6 -293775902#11.48 -293775902#11.91 -6440371#8 -6440371#8.7 -6440371#8.122 -6440371#8.124 -6440371#8.125 6464138#8 6464138#8.7 6464138#8.49 6464138#8.88 -6512920#5 -6512920#5.6 -6512920#5.9 -6512920#5.119 -6512920#5.124 -6512920#3 -6512920#3.8 -6512920#3.9 -6512920#3.19 -6512920#3.59 -6512920#3.92 486874837#0 486874837#1 -6447971#9 -6447971#8 -263669069#0 -465971499#1 -465971499#1.88 -901419467#2 -901419467#2.9 -901419467#2.49 -901419467#2.54 -901419467#2.71 -901419467#2.91 -353690160#5 -353690160#5.7 -353690160#5.91 -353690160#2 -353690160#2.8 -353690160#2.90 353690149#0 353690149#0.9 353690149#0.132 353690149#0.196 893866055#0 893866055#0.7 893866055#0.120 893866055#0.121 -893866056#3 -893866056#3.9 -893866056#3.34 -893866056#3.90 -353690157#4 -353690157#4.8 -353690157#4.23 -353690157#4.48 -353690157#4.77 -353690157#4.90 -243338979#17 -243338979#17.7 -243338979#17.60 -243338979#17.109 -243338979#17.118 -243338979#17.120 -243338979#12 -243338979#12.10 -243338979#12.11 -243338979#12.62 -243338979#9 -243338979#9.5 -243338979#9.31 6494871#0 6494871#0.10 6494871#0.90 -436480245#0 -436480245#0.21 -436480245#0.32 -436480245#0.59 353690159#9 353690159#9.9 353690159#9.28 353690159#9.40 353690159#9.53 353690159#9.88 -243338979#3 -243338979#3.10 -243338979#3.38 -243338979#3.51 -243338979#3.65 6376376#4 6376376#4.5 6376376#4.86 -6476327#11 893868547#0 893868547#0.8 893868547#0.91 876005346#0 876005346#0.6 876005346#0.88 876005346#3 -22917110#5 -22917110#5.7 -22917110#5.84 -22917110#2 -22917110#2.6 -22917110#2.86 -901477545#2 -901477545#2.11 -901477545#2.91 -32135545#3 -32135545#3.7 -32135545#3.47 -32135545#3.102 6458014#0 6458014#0.8 6458014#0.84 22917663#6 22917663#6.6 22917663#6.34 22917663#6.58 22917663#6.88 6506833#5 6506833#5.9 6506833#5.46 6506833#5.50 6506833#5.72 6506833#5.85 6506833#11 6506833#11.9 6506833#11.45 6506833#11.74 6506833#11.79 6506833#15 6506833#15.8 6506833#15.10 6506833#15.35 49394452#5 49394452#5.6 49394452#5.186 49394452#8 49394452#8.8 49394452#8.188 -6388742#2 -6388742#2.30 -6388742#2.38 -965874292#6 -965874292#6.10 -965874292#6.38 -965874292#6.48 -965874292#6.96 -965874292#2 -965874292#2.10 -965874292#2.91 -243338978#10 -243338978#10.11 -243338978#10.41 -243338978#10.48 -243338978#10.78 -243338978#6 -243338978#6.8 -243338978#6.83 -243338978#3 -243338978#3.21 -243338978#3.34 -243338978#3.83 -256996974#10 -256996974#10.11 -256996974#10.59 -256996974#10.79 -256996974#10.90 6440364#0 6440364#0.8 6440364#0.26 6440364#0.98 6440364#0.103 901477545#7 901477545#7.5 901477545#7.83 169917351#0 169917351#0.8 169917351#0.53 169917351#0.88 169917351#4 169917351#4.51 169917351#6 169917351#7 169917351#7.49 169917351#9 169917351#9.48 169917351#9.87 169917351#12 169917351#12.9 169917351#12.42 169917351#12.90 169917351#16 169917351#16.9 169917351#16.77 -6452520#2 -6452520#2.4 -6452520#2.101 460421482#0 460421482#0.8 460421482#0.73 6497081#0 6497081#0.8 6497081#2 6497081#2.38 6497081#2.47 6497081#2.53 6497081#2.60 6497081#2.67 6497081#2.70 6497081#2.74 6497081#2.81 6497081#2.120 6497081#6 6497081#6.44 6497081#8 6371720#3 157167355#0"/>
</vehicle>
<vehicle id = "veh12" type= "veh_passenger" depart="10815" >
<route edges =" -813722269#3 -813722269#3.7 -813722269#3.48 -813722269#3.84 -813722269#3.86 569505974#0 569505974#0.10 569505974#0.37 816616073#0 816616073#0.78 813722270#0 813722270#0.7 813722270#0.42 813722270#0.74 813722270#0.75 813722270#0.121 6430729#3 6430729#3.9 6430729#3.48 620762212#4 620762212#4.122 171739207#2 171739207#2.46 171739207#4 171739207#4.40 171739207#4.43 171739207#4.47 171739207#4.50 171739207#4.52 171739207#4.54 171739207#4.77 171739207#4.80 171739207#4.82 171739207#4.85 171739207#4.87 171739207#4.90 171739207#4.113 8071898#0 8071898#0.8 8071898#0.10 8071898#0.26 8071898#0.40 8071898#2 6343949#8 6343949#8.52 6343949#10 6343949#10.49 6343949#12 6343949#12.47 -525497324#3 -525497324#2 243349944#4 243349944#4.53 243349944#6 481291488#5 481291488#5.46 481291488#5.56 481291488#5.102 481291488#5.127 481291488#5.144 337739271#0 337739271#0.10 337739271#0.13 337739271#1 337739271#1.6 6343960 6343960.10 6343960.16 6343960.20 6343960.24 -343521145#0 -343521145#0.41 -343521145#0.63 620762224#0 -6430729#18 -6430729#18.53 525497324#8 292812445#7 292812445#7.46 292812445#9 292812445#9.49 6386837#0 6386837#1 6386837#2 6384359#12 6384359#12.14 6384359#12.24 6384359#12.93 8071925#0 8071925#0.9 8071925#0.55 -6383185#2 -6383185#2.45 -6383185#2.115 737709039#2 737709039#2.53 737709039#2.59 537678339#0 537678339#0.28 92170540#0 92170540#0.10 243334881#0 243334881#0.7 243334881#0.57 243334881#0.96 805680044#1 805680044#1.7 805680044#1.49 805680044#1.91 -22917113#10 -22917113#10.7 -22917113#10.129 -22917113#10.132 -22917113#7 -22917113#7.10 -22917113#7.19 243349945#6 243349945#6.48 243349945#6.88 243349945#9 243349945#9.50 243349945#11 243349945#11.47 243349945#13 243349945#13.48 243349945#15 243349945#15.47 -160624558#1 243349944#25 359671039#6 359671039#7 359671039#7.74 805658294#9 805658294#9.71 -532125609#3 243349945#19 243349945#20 263665040#3 263665040#3.26 263665040#3.104 263665040#3.115 -808266757#1 352434874#4 352434874#4.20 352434874#4.33 352434874#4.43 352434874#4.55 352434874#4.68 352434874#4.74 6474773#1 6474773#1.19 6474773#1.72 6474773#1.81 6477474#0 6477474#0.14 6477474#0.21 6511939#0 6511939#0.25 6511939#0.34 6511939#0.44 6511939#0.53 6511939#0.62 6511939#0.72 6511939#0.81 6511939#0.90 6511939#0.100 -6521060#1 -6521060#1.39 336908261#0 336908261#0.6 336908261#0.47 336908261#0.72 -6468802#6 -808266757#6 -336908257#9 -336908257#8 -243349944#32 6409640#12 6409640#13 6409640#13.62 6409640#13.65 -6512824 -6512824.3 -6512824.8 -6512824.65 -6512824.72 -243349941#12 -243349941#12.7 -243349941#11 -243349944#29 -263665040#1 -263665040#1.27 -263665040#1.83 -263665040#1.86 -460419010 -460419010.105 -460419010.122 -352434856 -352434856.9 -460419027 351740958#0 351740958#0.23 351740958#0.76 351740959 352434874#0 352434874#1 -243349944#27 -532125609#1 -6447445#15 -6447445#14 -6447445#13 -6447445#13.40 -6447445#11 -22760521#2 -22760521#2.81 -22760521#2.121 428246847#0 428246847#0.8 428246847#0.22 6386110#0 6386110#0.16 6386110#0.25 6386110#0.55 -243349338#6 -243349338#6.14"/>
</vehicle>
<vehicle id = "veh13" type= "veh_passenger" depart="10815" >
<route edges =" -816616074#1 -816616074#1.10 -816616074#1.14 -816616074#1.119 428341734#4 428341734#4.8 428246439#0 428246439#0.14 569505976#0 569505976#0.10 569505976#0.14 569505976#0.41 569505976#0.120 620762213#0 620762213#0.9 620762213#0.88 620762212#0 620762212#0.8 620762212#0.52 6343949#6 6343949#7 8071898#3 179551719 179551719.37 179551719.46 179551719.51 179551719.88 179551719.93 179551719.97 739843348#0 739843348#0.4 739843348#0.9 -460423532#1 -460423532#1.17 -22917111#30 -22917111#30.9 -22917111#30.50 -22917111#30.96 -22917111#26 -22917111#26.7 -22917111#26.41 -22917111#26.121 32135548#5 32135548#5.7 32135548#5.49 32135548#5.88 -6440371#11 -6440371#11.12 -6440371#11.144 293775902#8 293775902#8.6 293775902#8.49 293775902#8.91 293775902#12 293775902#12.3 293775902#12.50 6481166#12 525497323#2 525497323#2.81 40416132#0 40416132#0.19 -460419011#2 6464126#3 6464126#3.49 6464126#5 460419028#4 460419028#5 460419028#5.67 460419028#5.79 460419028#5.105 353690153#0 353690153#0.8 353690153#0.25 353690153#0.87 6360256#0 6360256#0.104 6360256#1 6360256#1.7 6360256#2 6360256#2.128 243349338#1 243349338#2 243349338#3 243349338#3.49 243349338#5"/>
</vehicle>
<vehicle id = "veh14" type= "veh_passenger" depart="10815" >
<route edges =" 817434294 817434294.10 817434294.36 817434294.44 817434294.63 817434294.119 816616072#4 816616072#4.7 816616072#4.62 816616072#4.121 816616072#8 816616072#8.6 816616072#8.121 6346526#0 6346526#0.6 6346526#0.99 6346526#0.121 -337668916#3 -337668916#3.10 -337668916#3.49 -337668916#3.92 -6463013#2 -6463013#2.8 -6463013#2.38 -6463013#2.42 -6463013#2.60 -6463013#2.70 -6463013#2.90 428246435#0 428246435#0.10 428246433 428246433.72 428246432#0 428246432#0.13 428098981 428098987#0 428098987#0.22 428098987#0.51 428098984#0 428098984#0.14 -621283351#2 -621283351#2.12 -621283351#2.21 158882505#0 158882505#0.42 -6368665#1 -6368665#1.49 -6368665#1.91 -6368665#1.93 171739214#11 171739214#12 171739214#13 6411908#2 6411908#2.39 158882505#4 158882505#4.31 158882505#6 6403883#2 158882517#5 -6469837#2 -6469837#1 -6469837#1.51 -171739214#20 -171739214#17 -171739214#17.19 -171739214#17.44 -160552467#5 -160552467#5.18 -160552467#5.25 -160552467#5.30 -160552467#5.63 -160552467#5.85 337668916#8 337668916#8.47 -6403874#0 -65588100#6 -65588100#6.7 -65588100#4 -65588100#4.73 -65588100#4.110 -6343949#6 -620762212#2 -620762212#2.76 -620762212#2.120 -800744530#5 -800744530#5.9 -800744530#5.19 -800744530#5.73 -800744530#5.84 -800744530#5.118 -800744528#1 -800744528#1.8 -800744528#1.16 -800744528#1.37 -800744528#1.72 -337673339 -337673337 185882764 185882764.13 185882764.14 185882765 185882765.16 185882765.26 185882765.30 185882765.31 395933841 164418944#0 164418944#0.13 164418944#0.18 164418944#0.32 164418944#0.39 164418944#4 164418944#4.7 164418944#4.8 164418944#4.29 164418944#4.51 164418944#4.95 -353690150#2 -353690150#2.8 -353690150#2.144 -893866064#2 -893866064#2.7 -893866064#2.122 6464138#0 6464138#0.7 6464138#0.53 6464138#0.92 -22917111#16 -22917111#16.4 -22917111#16.5 -22917111#16.7 -22917111#16.120 -22917111#16.122 -22917111#13 -22917111#13.8 -22917111#13.10 -22917111#13.79 -22917111#13.80 -22917111#13.98 -22917111#13.123 -22917111#10 -22917111#10.9 -22917111#10.32 -22917111#10.71 -22917111#10.74 -22917111#10.76 -22917111#10.93 -22917111#10.155 -22917111#10.196 -22917111#2 -22917111#2.10 -22917111#2.197 -876005346#2 -876005346#2.9 -876005346#2.90 -893868548#2 -893868548#2.7 -893868548#2.85 901474739#0 901474739#0.7 901474739#0.111 -22917110#2 -22917110#2.6 -22917110#2.86 901477545#4 901477545#4.7 901477545#4.69 6440364#4 6440364#4.6 6440364#4.86 901474739#7 901474739#7.8 901474739#7.82 6507809#0 6507809#0.7 6507809#0.88 6481166#5 -6467507#2 -6467507#2.10 -6467507#2.91 512168130#0 512168130#0.7 512168130#0.140 512168130#0.193 512168130#0.195 901419468#0 901419468#0.8 901419468#0.10 901419468#0.19 901419468#0.42 901419468#0.73 901419468#0.154 486874837#0 -6481166#8 -6481166#8.162 263669069#0 -6447971#7 6463532#0 6463532#0.49 -6515975#7 -6515975#6 -6515975#5 -6515975#5.48 -6515975#3 -6515975#3.6 -6515975#3.44 -6515975#3.102 256996973#0 256996973#0.33 256996973#0.45 256996973#0.49 256996975#0 256996975#0.50 256996975#0.62 256996975#0.65 256996975#0.91 6461236#0 6461236#0.9 6461236#0.24 6461236#0.44 6461236#0.58 6461236#0.60 6384260#3 6384260#3.54 -6487445#4 -6487445#4.15 -6487445#4.55 6415147#0 6415147#0.61 6449462#3 6449462#3.7 6449462#3.50 6449462#3.60 6449462#3.72 6449462#3.87 795669782#0 795669782#0.54 795669782#2 -6371720#1 -6371720#1.81 460418987#2 460418987#3 460418987#3.91 460418978#0 460418978#0.8 460418978#0.76 460418978#3 460418978#3.9 460418978#3.49 369455641#1 369455641#1.28 369455641#1.78 512126021#0 512126021#0.7 512126021#0.31 512126021#0.66 157167355#0"/>
</vehicle>
<vehicle id = "veh15" type= "veh_passenger" depart="10815" >
<route edges =" -814326475#2 -814326475#2.9 -814326475#2.24 -814326475#2.41 -814326475#2.70 -814326475#2.91 -6456052#5 -6456052#5.10 -6456052#5.36 -6456052#5.120 -6456052#1 -6456052#1.10 -6456052#1.62 -607691082#1 -607691082#0 -6475815#3 -6475815#3.2 -6475815#3.17 -6475815#3.46 -428089348#3 -428089348#3.15 -428089348#3.21 -428089348#3.28 -428341218#2 -428341218#2.3 -428341218#2.9 -65588069#1 -65588069#1.13 -428089351#1 -428089351#1.16 -428089352#1 -428089352#1.12 -428089350 -428089350.17 -428089350.43 -428227812#1 -428227812#1.9 -428227851#1 -428227851#1.5 -13726934#1 -13726934#1.5 -428227808 -428227847#1 -428227847#1.17 -749622503#15 -749622503#15.9 -749622503#15.31 -749622503#15.46 -749622503#15.51 -749622503#15.67 -749622503#15.85 -749622503#8 -749622503#8.7 -749622503#8.63 -749622503#8.83 -749622503#4 -749622503#4.84 -749622503#2 -749622503#2.9 -749622503#2.29 -749622503#2.64 -749622503#2.84 532166310#0 532166310#0.43 532166310#0.52 -428088883#1 -428088883#1.15 -428088897 -428088888 -737711647 -332223490#1 -332223490#1.19 6514305#0 6514305#0.3 6514305#0.4 6514305#0.9 6514305#0.14 6514305#0.34 6514305#0.54 353690159#1 353690159#1.50 353690159#1.92 353690159#4 353690159#4.6 353690159#4.49 353690159#4.69 353690159#4.76 353690159#4.85 -436480243#3 -436480243#3.10 -436480243#3.19 -436480243#3.38 -6435230#9 6376376#0 6376376#0.9 6376376#0.35 6376376#0.88 6376376#0.97 6376376#4 6376376#4.5 6376376#4.86 -6476327#11 -6476327#10 -6476327#10.8 -6476327#10.86 -893868549#11 -893868549#11.9 -893868549#11.68 -893868549#11.84 -893868549#11.99 -893868549#11.180 -893868549#11.184 -893868549#6 -893868549#6.12 -893868549#6.14 -893868549#6.50 -893868549#6.94 6343878#3 6343878#3.6 6343878#3.84 -347094714#3 -347094714#3.9 -347094714#3.49 -347094714#3.92 6467490#0 6467490#0.7 6467490#0.49 6467490#0.78 -401497115 -401497115.113 -401497115.170 -401497115.214 -537677478#2 -537677478#2.10 -537677478#2.11 -537677478#2.28 -537677478#2.36 -6456046#3 -6456046#3.6 -6456046#3.36 -6456046#3.42 -6456046#3.49 -6456046#3.56 -6456046#3.62 -6456046#3.66 -6456046#3.71 -6456046#3.76 -6456046#3.92 -6456046#3.102 -6456046#3.109 -6456046#3.112 440890310 440890310.65 425646003#0 425646003#0.15 6465162#0 6465162#0.2 6465162#0.6 6465162#0.11 6465162#0.36 428233434 428233434.31 428233434.58 332223487#0 332223487#0.16 332223487#0.62 332223487#0.98 332223488 332223488.25 332223488.48 332223488.65 332223488.68 332223488.88 347092907#0 347092907#0.3 347092907#0.13 347092907#0.19 347092907#0.26 347092907#0.31 347092907#0.38 347092907#0.40 347092907#0.45 347092907#0.51 6405076#0 6405076#0.10 6405076#0.18 6405076#0.21 6405076#0.58 6405076#0.79 6405076#0.81 6405076#3 6405076#3.4 6405076#3.8 6405076#3.14 6405076#3.20 6405076#3.50 6405076#3.68 6405076#3.84 6405076#6 6405076#6.6 6405076#6.21 6405076#6.26 6405076#6.33 6405076#6.44 6405076#6.49 6405076#6.65 6405076#6.68 6405076#6.71 6405076#6.77 6405076#6.79 6405076#6.82 6405076#6.87 256996971#0 256996971#0.7 256996971#0.23 256996971#0.32 256996971#0.37 256996971#0.85 256996974#0 256996974#0.8 256996974#0.88 6506833#0 6506833#0.9 6506833#0.37 6506833#0.54 6506833#0.84 22917663#11 22917663#11.6 22917663#11.23 22917663#11.87 22917663#15 22917663#15.9 22917663#15.45 22917663#15.80 243338978#4 243338978#4.8 243338978#4.84 243338978#7 243338978#7.8 243338978#7.38 243338978#7.45 243338978#7.74 965874293#0 965874293#0.9 965874293#0.40 965874293#2 965874293#2.45 760645196#0 760645196#0.8 760645196#0.188 6388742#6 6388742#6.5 6388742#6.25 6388742#6.46 6388742#6.62 6388742#6.83 263712958#0 263712958#0.8 263712958#0.45 263712958#0.101 263712958#0.114 263712958#0.117 263712958#0.119 6445479#0 6445479#0.4 6445479#0.8 6445479#0.186 965874292#10 965874292#10.35 965874292#12 965874292#12.8 965874292#12.69 158123767#0 158123767#0.10 158123767#0.11 158123767#0.50 158123767#0.74 158123767#0.86 158123767#0.115 158123767#0.122 158123767#0.134 158123767#0.139 158123767#0.166 795669781 795669781.52 795669781.56 6497081#6 6497081#6.44 6414318#3 -157167355#0"/>
</vehicle>
<vehicle id = "veh16" type= "veh_passenger" depart="14420" >
<route edges =" -813722269#3 -813722269#3.7 -813722269#3.48 -813722269#3.84 -813722269#3.86 620762213#0 620762213#0.9 620762213#0.88 620762212#0 620762212#0.8 620762212#0.52 6343949#6 6343949#7 6343949#8 6343949#8.52 6343949#10 6343949#10.49 -6440348#10 -6440348#10.4 -6440348#10.6 -6440348#10.48 -6440348#10.83 620762218#3 620762218#3.7 525497324#3 525497324#4 525497324#4.15 525497324#4.73 525497324#4.88 525497324#8 6513783#0 962517344 962517344.33 6381494#1 6463017#6 6463017#6.48 -6386837#0 337739268 337739268.124 337739267#0 337818462 337818462.3 337818462.6 337739271#1 337739271#1.6 337739269#0 -460419011#4 243349944#8 -801995081#5 -801995081#5.197 -801995081#5.209 256994206#0 256994206#0.8 256994206#0.43 256994206#0.60 396055524#0 396055524#0.9 396055524#0.30 396055524#0.54 396055524#0.65 -6360256#4 243349338#1 243349338#2 243349338#3 243349338#3.49 6494975#3 6494975#3.99 256994205#3 428246847#0 428246847#0.8 428246847#0.22 6386110#0 6386110#0.16 6386110#0.25 6386110#0.55 -243349338#6 -243349338#6.14"/>
</vehicle>
<vehicle id = "veh17" type= "veh_passenger" depart="14420" >
<route edges =" -816616074#1 -816616074#1.10 -816616074#1.14 -816616074#1.119 428341734#4 428341734#4.8 428246439#0 428246439#0.14 428246438#0 428246438#0.8 428246440#0 428246440#0.62 800744529#0 800744529#0.7 800744529#0.52 800744529#0.89 -349901821 349901822#0 349901822#0.9 96029553#0 96029553#0.9 96029553#0.15 96029553#0.59 -893866066#2 -893866066#2.7 -893866066#2.122 32135548#0 32135548#0.6 32135548#0.48 32135548#0.53 32135548#0.64 32135548#0.89 32135548#0.90 32135548#5 32135548#5.7 32135548#5.49 32135548#5.88 -6440371#11 -6440371#11.12 -6440371#11.144 -6440371#8 -6440371#8.7 -6440371#8.122 -6440371#8.124 -6440371#8.125 6464138#8 6464138#8.7 6464138#8.49 6464138#8.88 6464138#12 6464138#12.51 6464138#14 481291488#2 40416132#0 40416132#0.19 40416132#1 40416132#1.90 256994206#0 256994206#0.8 256994206#0.43 256994206#0.60 460419028#0 460419028#0.11 460419028#0.49 460419028#0.79 460419028#0.95 460419028#3 460419028#4 243339793#5 -6360256#0 -6360256#0.8 486875123#0 486875123#0.56 486875123#0.88 -185485118#1 -185485118#0 -185485118#0.55 -185485118#0.102 -185485118#0.141 185485127#0 6523501#5 6523501#5.201 926425191#0 926425191#0.5 6494970#7 6494975#0 6494975#0.105 243339793#13 243339793#13.49 243339793#15 243339793#15.46 795671506#0 795671506#0.46 6501822#9 6501822#9.6 6501822#10 -6464126#18 -6464126#18.45 -6464126#16 -6464126#16.47 -6464126#14 -6464126#14.50 6494975#2 243349338#5"/>
</vehicle>
<vehicle id = "veh18" type= "veh_passenger" depart="14420" >
<route edges =" 817434294 817434294.10 817434294.36 817434294.44 817434294.63 817434294.119 6343949#0 6343949#0.7 6343949#0.86 -816616073#1 -816616073#1.7 -569505974#1 -569505974#1.6 -569505974#1.33 -569505976#2 -569505976#2.9 -569505976#2.88 -569505976#2.115 -569505976#2.119 -569505978#1 -569505978#1.10 -569505979 -569505979.32 -569505979.79 337673338#0 337673338#0.14 185882764 185882764.13 185882764.14 185882765 185882765.16 185882765.26 185882765.30 185882765.31 -243338979#28 -243338979#28.13 -243338979#28.49 -243338979#28.142 -243338979#28.143 893866065#3 893866065#3.6 893866065#3.48 893866065#3.88 893866065#7 893866065#7.7 893866065#7.48 893866065#7.90 293775902#0 293775902#0.7 293775902#0.52 293775902#0.90 -22917111#19 -22917111#19.8 -22917111#19.123 -22917111#19.125 -22917111#19.126 6464138#4 6464138#4.6 6464138#4.51 6464138#4.88 -6440371#5 -6440371#5.4 -6440371#5.6 -6440371#5.7 -6440371#5.119 -6440371#5.121 353690154#8 353690154#8.7 353690154#8.42 353690154#8.50 353690154#8.92 353690154#12 353690154#12.6 353690154#12.32 353690154#15 353690154#15.50 -6447971#10 -6447971#10.11 -6447971#9 -6447971#8 263669069#1 263669069#1.41 263669069#1.48 263669069#1.70 -6515975#8 -6463532#1 -6463532#1.50 -6447971#6 6467507#4 6467507#4.48 6467507#6 6467507#6.51 6467507#8 6467507#8.87 6516509#8 6516509#8.7 6516509#8.85 6516509#11 6516509#11.6 6516509#11.34 6516509#11.86 6516509#15 6516509#15.7 6516509#15.35 6516509#15.48 6516509#15.68 6516509#15.70 6516509#15.79 6516509#15.84 6516509#15.98 6516509#15.101 256996976#0 256996976#0.11 256996976#0.20 256996976#0.46 256996976#0.79 6487445#0 6487445#0.8 6415147#0 6415147#0.61 6415147#2 6497081#2 6497081#2.38 6497081#2.47 6497081#2.53 6497081#2.60 6497081#2.67 6497081#2.70 6497081#2.74 6497081#2.81 6497081#2.120 6497081#6 6497081#6.44 6497081#8 6371720#3 157167355#0"/>
</vehicle>
<vehicle id = "veh19" type= "veh_passenger" depart="14420" >
<route edges =" -814326475#2 -814326475#2.9 -814326475#2.24 -814326475#2.41 -814326475#2.70 -814326475#2.91 -6456052#5 -6456052#5.10 -6456052#5.36 -6456052#5.120 -6456052#1 -6456052#1.10 -6456052#1.62 -337673342#0 6343890#0 6343890#0.54 6343890#0.56 6343890#0.58 6343890#0.59 6343890#0.61 -6475815#6 -6475815#6.16 -6501701#3 -6501701#3.11 -6501701#3.20 -607691082#0 -6475815#3 -6475815#3.2 -6475815#3.17 -6475815#3.46 -428089348#3 -428089348#3.15 -428089348#3.21 -428089348#3.28 332223491#0 332223491#0.12 6438604#0 6438604#0.3 6438604#0.6 6438604#0.8 6438604#0.10 6438604#0.11 6438604#0.13 6438604#0.44 6438604#0.60 -22927969#14 -22927969#14.8 -22927969#14.47 -22927969#14.89 -22927969#10 -22927969#10.10 -22927969#10.51 -22927969#10.91 -22927969#6 -22927969#6.8 -22927969#6.48 -22927969#6.90 -749622503#18 -749622503#18.7 -749622503#18.55 -749622503#18.81 -428227803#1 -428227803#1.9 -428227860 -428227860.14 -428227828 -428227842 -428227822#1 -428227822#1.17 -428227833#1 -428227833#1.13 -428227838 -428227854#1 -428227854#1.5 -428227818 -428227865#1 -428227865#1.18 -428227899#1 -428227899#1.9 -428227850#1 -428227850#1.24 -428227893#1 -428227893#1.17 -428227877#1 -428227877#1.10 -428227882#1 -428227882#1.23 -428227887#1 -428227887#1.18 -8111067#14 -8111067#14.9 -8111067#14.17 -8111067#14.35 -8111067#14.57 -8111067#14.84 706262355#0 706262355#0.47 706262355#0.82 706262355#0.89 263672156#0 263672156#0.7 263672156#0.17 263672156#0.91 263672156#3 263672156#3.7 263672156#3.57 263672156#3.86 369877031#0 369877031#0.10 369877031#0.31 369877031#0.46 369877031#0.88 -749622503#8 -749622503#8.7 -749622503#8.63 -749622503#8.83 -749622503#4 -749622503#4.84 369877024#3 369877024#3.6 369877024#3.87 369877024#3.91 369877024#3.98 369877024#3.100 369877024#3.103 369877024#3.104 -428088900#1 -428088900#1.10 -428088894#1 -428088894#1.25 -428088883#1 -428088883#1.15 -428088897 -428088888 -737711647 -332223490#1 -332223490#1.19 -465971498#3 -465971498#3.2 -465971498#3.3 -465971498#3.5 -465971498#3.7 -465971498#3.10 -465971498#3.34 -465971498#3.84 369877037#0 369877037#0.9 369877037#0.83 537686684#0 537686684#0.43 537686684#0.53 -332223489#3 -332223489#3.4 -332223489#3.15 -332223489#3.17 -332223489#3.21 -401497115 -401497115.113 -401497115.170 -401497115.214 -428233435 -460425668 -460425668.5 -6457806#2 -6457806#2.21 -6457806#2.25 -6457806#2.30 -425646003#1 -425646003#1.13 -724644768 -724644768.35 6402586#0 6402586#0.1 6402586#0.4 6402586#0.6 6402586#0.12 6402586#0.35 6402586#0.59 6402586#4 6402586#4.72 6402586#4.75 6402586#4.77 6402586#4.80 208021560#0 208021560#0.2 208021560#0.5 208021560#0.8 208021560#0.11 208021560#0.30 208021560#0.39 208021560#0.44 208021560#0.106 208021560#0.125 208021560#0.133 208021560#0.136 739874553#0 739874553#0.66 739874553#0.80 739874553#0.88 333370569#0 333370569#0.6 333370569#0.13 333370569#0.37 333370569#0.43 333370569#0.66 333370569#0.94 333370569#0.155 333370569#0.178 333370566#0 333370566#0.32 332223494#0 332223494#0.18 332223494#0.35 332223494#0.144 332223494#0.171 22760519#0 22760519#0.7 22760519#0.27 22760519#3 22760519#3.9 22760519#3.21 22760519#3.33 22760519#3.91 965874292#0 965874292#0.8 965874292#0.88 -22917664#2 -22917664#2.11 -22917664#2.76 881403607#0 881403607#0.25 881403607#0.42 881403608#3 881403608#3.2 881403608#3.5 881403608#3.8 881403608#3.11 976099002#0 976099002#0.34 976099002#0.40 976099002#0.64 965874292#7 965874292#7.8 965874292#7.41 965874292#10 965874292#10.35 965874292#12 965874292#12.8 965874292#12.69 158123767#0 158123767#0.10 158123767#0.11 158123767#0.50 158123767#0.74 158123767#0.86 158123767#0.115 158123767#0.122 158123767#0.134 158123767#0.139 158123767#0.166 795669781 795669781.52 795669781.56 460421481#1 460421481#1.61 460421481#1.85 -428247194#1 -428247194#1.9 -428247194#1.28 -157167355#3 -157167355#3.5 -157167355#3.43 -157167355#0"/>
</vehicle>
<vehicle id = "veh20" type= "veh_passenger" depart="18025" >
<route edges =" -813722269#3 -813722269#3.7 -813722269#3.48 -813722269#3.84 -813722269#3.86 569505974#0 569505974#0.10 569505974#0.37 816616073#0 816616073#0.78 813722270#0 813722270#0.7 813722270#0.42 813722270#0.74 813722270#0.75 813722270#0.121 813722270#5 813722270#5.7 813722270#5.118 6411908#0 6411908#1 6411908#1.103 6411908#1.111 -171739214#13 6346524#0 6346524#1 158882517#2 158882517#3 -160552467#8 -160552467#7 -160552467#7.43 -160552467#7.73 -160552467#7.78 171739214#15 171739214#15.31 171739214#15.57 -6403874#2 -6403874#2.90 -6403874#0 -65588100#6 -65588100#6.7 6430729#9 6430729#9.48 6430729#11 6430729#11.51 65588093#3 6505136#0 6505136#0.18 6505136#0.27 6505136#0.73 6505136#0.87 6505136#0.118 6505136#5 6505136#5.72 -6384359#3 -6384359#3.48 -6384359#3.53 -6384359#3.76 6457203#0 -171739214#24 -171739214#24.39 -171739214#24.44 -171739214#24.63 6469837#0 6469837#0.39 6469837#2 -158882517#5 6403883#3 -158882511#7 -158882511#7.20 -158882511#7.33 -158882511#4 6411908#5 6411908#5.89 6411908#5.98 6411908#5.108 6411908#6 6323849#0 6323849#0.39 6462093 6462093.38 6462093.73 6462093.86 6462093.97 6462093.118 6462093.133 6462093.149 6462093.160 6462093.169 6428544#14 6428544#14.73 -6403883#8 -6403883#7 -6403883#6 -6403883#5 6368504#0 6368504#1 6368504#1.33 6368504#3 6368504#3.46 6505136#16 975126260#2 975126260#2.48 603522174#0 603522174#1 603522174#2 603522174#2.123 -8111708#5 -8111708#5.7 -8111708#5.45 -6505136#13 -6505136#13.115 8111709#2 8111709#2.49 8111709#4 8111709#4.49 6513783#6 37657905#3 37657905#3.48 -6381494#8 -6381494#8.122 -6381494#8.124 -6381494#6 -6381494#6.57 -6381494#6.77 -6381494#6.94 -6384359#9 -6384359#9.16 -6384359#8 -6384359#7 -6384359#7.49 -6464042#2 -6464042#2.80 -6464042#1 -6464042#1.52 -6440348#14 6430729#15 6430729#15.48 6430729#17 6430729#17.51 -620762224#0 -66558981#7 -66558981#7.65 -66558981#7.83 -66558981#7.105 -66558981#7.123 243349944#6 243349944#7 243349944#8 801995081#6 801995081#6.192 337739269#3 337739269#3.69 396055523#5 396055523#5.8 396055523#5.42 243349945#0 243349945#0.6 243349945#0.83 -6360256#9 -6360256#9.6 -6360256#7 -6360256#7.5 -6360256#5 256994205#0 256994205#0.67 22917113#4 6447445#5 6447445#5.47 185485132#9 185485132#10 185485132#11 185485132#11.115 185485132#12 185485132#12.17 805680044#8 805680044#8.47 6356676#0 6356676#1 6356676#2 6356676#2.67 6356676#2.82 6356676#2.92 6349021#0 6349021#1 6349021#1.39 -40416127#2 -40416127#2.7 -40416127#2.26 40416130#0 6349133#3 6414237#0 6414237#0.11 6414237#1 -6353172#1 -40416130#2 -6353867#0 170683665#8 170683665#10 170683665#10.11 170683665#13 -6369950#2 -6369950#2.24 -6369950#0 -336908262#6 6521828#0 6521828#0.9 6521828#0.34 6521828#0.134 -6463035#13 -6463035#13.80 -6463035#11 -6463035#11.50 -6349133#0 -6472289#4 805658294#6 805658294#6.47 -160624558#2 -243349945#16 -243349945#16.50 -243349945#14 -243349945#14.50 -243349942#0 -243349942#0.28 -243349944#20 -243349944#20.50 -6494975#7 -6494975#6 -6494975#6.81 256994205#3 428246847#0 428246847#0.8 428246847#0.22 6386110#0 6386110#0.16 6386110#0.25 6386110#0.55 -243349338#6 -243349338#6.14"/>
</vehicle>
<vehicle id = "veh21" type= "veh_passenger" depart="18025" >
<route edges =" -816616074#1 -816616074#1.10 -816616074#1.14 -816616074#1.119 428341734#4 428341734#4.8 428246439#0 428246439#0.14 428246438#0 428246438#0.8 428246440#0 428246440#0.62 -800744528#1 -800744528#1.8 -800744528#1.16 -800744528#1.37 -800744528#1.72 826314456#0 826314456#0.9 826314456#0.50 826314456#0.96 826314456#0.103 349901821 825336588#0 825336588#0.7 349901822#2 349901822#2.21 332092195#0 332092195#0.9 332092195#0.74 -22917111#30 -22917111#30.9 -22917111#30.50 -22917111#30.96 -22917111#26 -22917111#26.7 -22917111#26.41 -22917111#26.121 -22917111#22 -22917111#22.9 -22917111#22.144 293775902#4 293775902#4.6 293775902#4.49 293775902#4.88 293775902#8 293775902#8.6 293775902#8.49 293775902#8.91 6512920#8 6512920#8.4 6512920#8.74 6512920#8.89 6512920#8.101 6512920#8.139 525497323#0 525497323#0.50 525497323#2 525497323#2.81 40416132#0 40416132#0.19 -460419011#2 -460419011#1 -460419011#1.97 243339793#2 243339793#2.49 801995081#0 6464126#5 6464126#6 -6360256#1 -6360256#1.102 243339793#6 243339793#6.50 243339793#6.74 -22917112 481291012#0 481291012#0.24 481291012#0.32 185485132#2 185485132#2.104 185485132#3 185485132#3.10 6464126#11 6464126#11.50 6494975#2 243349338#5"/>
</vehicle>
<vehicle id = "veh22" type= "veh_passenger" depart="18025" >
<route edges =" 817434294 817434294.10 817434294.36 817434294.44 817434294.63 817434294.119 6343949#0 6343949#0.7 6343949#0.86 -816616073#1 -816616073#1.7 -569505974#1 -569505974#1.6 -569505974#1.33 -569505976#2 -569505976#2.9 -569505976#2.88 -569505976#2.115 -569505976#2.119 -569505978#1 -569505978#1.10 -569505979 -569505979.32 -569505979.79 -395714916#1 -395714916#1.12 -568043367 -568043367.41 -568043367.79 -293775903#2 -293775903#2.10 -293775903#2.37 -293775903#2.89 -293775903#2.118 -475161306#1 -475161306#1.9 -475161306#1.92 -475161306#1.120 353690155#0 353690155#0.10 353690155#0.51 353690155#0.58 353690155#0.90 243338979#18 243338979#18.9 243338979#18.123 893866060#4 893866060#4.6 893866060#4.48 893866060#4.89 893866060#8 893866060#8.7 893866060#8.65 893866060#8.89 6464138#0 6464138#0.7 6464138#0.53 6464138#0.92 6464138#4 6464138#4.6 6464138#4.51 6464138#4.88 6464138#8 6464138#8.7 6464138#8.49 6464138#8.88 6464138#12 6464138#12.51 -6481166#10 -6481166#10.6 -6481166#10.8 -6481166#10.120 -6481166#9 -6481166#9.8 486874837#1 486874837#2 486874837#2.47 -460419014 -460419014.67 -460419007#0 -460419007#0.17 -460419007#0.46 -6515975#8 6463532#2 6463532#2.50 -6380913#7 -6380913#7.22 -6380913#5 6507809#7 6507809#7.46 6507809#7.87 6507809#10 6507809#10.8 6507809#10.91 -6360239#7 -6360239#7.6 -6360239#7.47 -6360239#7.86 -6360239#3 -6360239#3.6 -6360239#3.69 -6360239#3.102 256996976#3 256996976#3.7 256996976#3.76 6449462#0 6449462#0.9 6449462#0.46 6415147#2 6497081#2 6497081#2.38 6497081#2.47 6497081#2.53 6497081#2.60 6497081#2.67 6497081#2.70 6497081#2.74 6497081#2.81 6497081#2.120 6497081#6 6497081#6.44 -6414318#2 -6414318#2.8 -6414318#0 -6414318#0.76 -6414318#0.81 460418987#0 460418987#0.4 460418987#0.8 -6414273#1 -6414273#1.22 -460418992#4 -460418992#4.6 -460418992#4.125 -460418992#2 -460418992#2.50 -460418992#2.92 460418994#0 460418994#0.9 460418994#0.44 460418994#0.71 22917667#0 22917667#0.7 22917667#0.103 22917670#7 22917670#7.7 22917670#7.71 795846818#5 795846818#5.5 795846818#5.174 481291011#0 481291011#0.6 481291011#0.65 481291010#0 481291010#0.19 481291010#0.23 481291010#0.30 481291010#0.133 481291010#3 481291010#3.6 481291010#3.100 369455641#1 369455641#1.28 369455641#1.78 -512126023#7 -512126023#7.8 -512126023#7.19 -512126023#7.31 -512126023#7.44 -512126023#7.91 -512126023#7.107 -512126023#7.111 -512126023#7.245 6496652#0 6496652#0.8 6496652#2 6496652#2.75 6496652#4 6496652#4.7 6367253#5 -754699003#2 -754699003#2.70 -6354794#5 -6354794#5.7 -6354794#5.119 -6496652#8 -6496652#8.7 -22917678#2 -22917678#2.8 -22917678#2.134 -6367253#1 -6367253#1.137 -6467368#2 6351337#0 -6485999#1 -6485999#1.42 -185483738#5 -185483738#5.100 -185483738#3 -185483738#3.11 -185483738#3.19 -185483738#2 -185483738#2.93 -6371720#5 -6371720#5.41 157167355#0"/>
</vehicle>
<vehicle id = "veh23" type= "veh_passenger" depart="18025" >
<route edges =" -814326475#2 -814326475#2.9 -814326475#2.24 -814326475#2.41 -814326475#2.70 -814326475#2.91 -723013181#2 -723013181#2.9 -723013181#2.18 -723013181#2.38 -723013181#0 -332601014#3 -332601014#3.31 -332601014#3.36 -332601014#3.42 -428246436#1 -428246436#1.13 -428246436#1.22 -428246436#1.37 -808907363#3 -808907363#3.25 -808907363#3.35 -808907363#3.48 -808907363#3.53 -808907363#3.61 607690679#0 607690679#0.3 607690679#0.8 607690679#0.15 607690679#0.94 -6456052#1 -6456052#1.10 -6456052#1.62 -607691082#1 -607691082#0 -6475815#3 -6475815#3.2 -6475815#3.17 -6475815#3.46 -428089348#3 -428089348#3.15 -428089348#3.21 -428089348#3.28 332223491#0 332223491#0.12 332223492#0 332223492#0.22 332223492#0.40 332223492#0.51 332223492#0.65 332223492#0.100 332223492#0.140 332223492#0.146 332223492#0.160 759056490#0 759056490#0.3 759056490#0.7 759056490#0.10 759056490#0.50 759056490#0.65 759056490#0.69 759056490#0.74 759056490#0.78 759056490#0.82 759056490#0.87 165086027#0 165086027#0.10 165086027#0.12 158612542#0 158612542#0.8 158612542#0.40 158612542#0.49 158612542#0.58 158612542#0.111 158612542#6 158612542#6.7 158612542#6.50 158612542#6.74 158612542#8 158612542#8.37 158612542#8.77 158612542#8.79 158612542#11 158612542#11.75 158612542#11.76 -6430737#2 -6430737#2.22 -6430737#2.48 6461453#17 6461453#17.40 6461453#17.73 6461453#17.80 -6474762#2 -6474762#2.6 -6474762#2.9 -6474762#2.12 -6474762#1 -6474762#1.50 -393047811 -460421473#2 -460421473#2.33 -6430733#0 460423542#2 460423542#2.42 460423542#2.44 -65588116#5 -65588116#5.12 -65588116#5.38 -65588116#5.44 -65588116#5.64 -65588116#5.81 -65588116#1 -65588116#1.113 6415868#0 6415868#0.47 6415868#2 6415868#2.24 6415868#2.65 6349123#7 6343952#3 6343952#3.71 6343952#3.75 -6461453#10 -6461453#10.30 -6461453#10.33 -6461453#10.45 -6461453#10.87 -6461453#5 -6461453#5.36 -6461453#5.50 -6461453#5.66 -6461453#5.116 -723052304#2 -723052304#2.8 -723052304#0 -6511393#1 -6511393#1.119 -6511397#14 -6511397#14.3 -6511397#14.5 -6511397#14.7 -6511397#14.9 -6511397#14.18 -6511397#14.65 -6511397#10 -6511397#10.7 -6511397#10.83 -759056694#6 -759056694#6.7 -759056694#6.25 -759056694#6.49 -759056694#6.89 -293753570#9 -293753570#9.8 -293753570#9.10 -293753570#9.56 -293753570#9.84 -293753570#5 -293753570#5.6 -293753570#5.37 -293753570#5.47 -293753570#5.60 -293753570#5.82 -293753570#2 -293753570#2.9 -293753570#2.83 293753571#0 293753571#0.5 293753571#0.20 293753571#0.24 -353690151#2 -353690151#2.9 -353690151#2.22 -353690151#2.24 -353690151#2.39 -353690151#2.72 -353690151#2.92 -433500388#1 -433500388#1.11 -433500388#1.46 -433500388#1.73 -433500388#1.113 -433500388#1.115 -428088900#1 -428088900#1.10 -428088894#1 -428088894#1.25 -532166310#2 -532166310#2.3 -532166310#2.13 -6522514#4 -6522514#4.7 -6522514#4.36 -6522514#4.61 -6522514#4.66 -6522514#4.67 -6522514#4.73 -332223490#1 -332223490#1.19 -428088887#1 -428088887#1.12 -428088892 -428088886#1 -428088886#1.24 -428088886#1.35 -428088886#1.45 -65588108#1 -65588108#1.18 -65588108#1.53 -332223489#3 -332223489#3.4 -332223489#3.15 -332223489#3.17 -332223489#3.21 -401497115 -401497115.113 -401497115.170 -401497115.214 -428233435 -460425668 -460425668.5 -6457806#2 -6457806#2.21 -6457806#2.25 -6457806#2.30 6476922#0 6476922#0.13 6476922#0.24 6476922#0.37 6476922#0.60 6476922#0.67 6413383#0 6413383#0.1 6413383#0.3 6413383#0.6 6413383#0.18 6413383#0.26 6413383#0.47 428233432#0 428233432#0.11 428233432#0.22 332223487#0 332223487#0.16 332223487#0.62 332223487#0.98 893872038 893872038.9 893872038.14 893872038.97 893872038.123 893872038.129 893872038.134 347092915#0 347092915#0.8 347092915#0.32 347092915#0.44 347092915#0.89 347092915#0.182 347092915#6 347092915#6.6 347092915#6.44 347092915#6.87 6465130#7 6465130#7.8 6465130#7.44 6465130#7.70 6465130#7.74 -22760519#2 -22760519#2.67 -22760519#2.88 6506833#15 6506833#15.8 6506833#15.10 6506833#15.35 6506833#18 6506833#18.45 749863323#4 749863323#4.7 749863323#4.50 749863323#4.155 749863323#4.186 760645196#0 760645196#0.8 760645196#0.188 -6388742#5 -6388742#5.6 -6388742#5.38 -6388742#2 -6388742#2.30 -6388742#2.38 965874292#7 965874292#7.8 965874292#7.41 965874292#10 965874292#10.35 965874292#12 965874292#12.8 965874292#12.69 158123767#0 158123767#0.10 158123767#0.11 158123767#0.50 158123767#0.74 158123767#0.86 158123767#0.115 158123767#0.122 158123767#0.134 158123767#0.139 158123767#0.166 795669782#0 795669782#0.54 6414318#1 6414318#1.86 6414318#3 -157167355#0"/>
</vehicle>
<vehicle id = "veh24" type= "veh_passenger" depart="21630" >
<route edges =" -813722269#3 -813722269#3.7 -813722269#3.48 -813722269#3.84 -813722269#3.86 620762213#0 620762213#0.9 620762213#0.88 57883609#0 57883609#0.6 57883609#0.57 57883609#3 57883609#3.43 57883609#3.52 57883609#3.60 57883609#3.80 620762214 332092195#0 332092195#0.9 332092195#0.74 460423532#0 460423532#0.2 620762218#0 620762218#0.55 620762218#0.66 620762218#0.68 620762218#0.81 -6440348#7 -6440348#7.9 243349944#0 243349944#0.4 243349944#0.20 243349944#0.49 243349944#4 243349944#4.53 243349944#6 243349944#7 460419011#4 337739269#1 337739269#1.30 337739269#3 337739269#3.69 -396055523#4 -396055523#4.9 -396055523#4.15 -396055523#4.150 -92170540#0 -92170540#0.2 169730574#0 169730574#0.11 169730574#0.29 169730574#0.31 854082601 854082601.11 854082601.52 -6486416#2 -6486416#2.9 -6486416#2.116 -6360256#15 -6360256#15.7 -6360256#15.133 361784407#0 361784407#0.8 361784407#0.38 361784407#0.53 -22917113#7 -22917113#7.10 -22917113#7.19 -22917113#6 243349944#15 243349944#15.48 243349944#17 243349944#17.50 243349944#19 243349944#19.47 243349942#0 243349942#0.100 243349942#1 243349942#1.25 805658294#4 805658294#4.48 805658294#6 805658294#6.47 160624558#3 160624558#3.42 336908262#4 336908262#4.6 -359671039#10 -359671039#10.86 -359671039#8 -359671039#8.55 243349945#18 243349945#19 -352434874#2 -243349944#27 -532125609#1 -6447445#15 359671039#5 359671039#5.12 -243349944#25 -160624558#0 -160624558#0.117 -160624558#0.124 -6447445#13 -6447445#13.40 -6447445#11 -6447445#10 -6447445#10.48 -6447445#8 -6447445#8.50 -185485132#8 -185485132#8.81 256994205#2 256994205#2.24 256994205#2.72 256994205#3 428246847#0 428246847#0.8 428246847#0.22 6386110#0 6386110#0.16 6386110#0.25 6386110#0.55 -243349338#6 -243349338#6.14"/>
</vehicle>
<vehicle id = "veh25" type= "veh_passenger" depart="21630" >
<route edges =" -816616074#1 -816616074#1.10 -816616074#1.14 -816616074#1.119 428341734#4 428341734#4.8 428246439#0 428246439#0.14 428246438#0 428246438#0.8 428246440#0 428246440#0.62 800744529#0 800744529#0.7 800744529#0.52 800744529#0.89 825336588#0 825336588#0.7 96029553#0 96029553#0.9 96029553#0.15 96029553#0.59 8071900#0 8071900#0.7 8071900#0.18 8071900#0.88 -22917111#26 -22917111#26.7 -22917111#26.41 -22917111#26.121 32135548#5 32135548#5.7 32135548#5.49 32135548#5.88 32135548#9 32135548#9.7 32135548#9.47 32135548#9.63 32135548#9.78 525497323#0 525497323#0.50 525497323#2 525497323#2.81 -481291488#2 -481291488#1 6464126#0 6464126#0.46 6464126#0.49 6464126#3 6464126#3.49 6464126#5 -460419028#3 243349338#0 243349338#0.18 243349338#1 243349338#2 -185485132#4 6464126#11 6464126#11.50 6494975#2 243349338#5"/>
</vehicle>
<vehicle id = "veh26" type= "veh_passenger" depart="21630" >
<route edges =" 817434294 817434294.10 817434294.36 817434294.44 817434294.63 817434294.119 6343949#0 6343949#0.7 6343949#0.86 6343949#3 6343949#3.9 6343949#3.49 -620762212#2 -620762212#2.76 -620762212#2.120 -800744530#5 -800744530#5.9 -800744530#5.19 -800744530#5.73 -800744530#5.84 -800744530#5.118 -800744528#1 -800744528#1.8 -800744528#1.16 -800744528#1.37 -800744528#1.72 -337673339 -337673337 -337673338#1 -337673338#1.9 -395714916#1 -395714916#1.12 -568043367 -568043367.41 -568043367.79 893866065#0 893866065#0.10 893866065#0.66 893866065#0.92 243338979#26 243338979#26.6 243338979#26.7 243338979#26.100 243338979#26.136 395933841 164418944#0 164418944#0.13 164418944#0.18 164418944#0.32 164418944#0.39 -353690148#9 -353690148#9.7 -353690148#9.10 -353690148#9.12 -353690148#9.13 -353690148#9.38 -353690148#9.143 -353690148#6 -353690148#6.8 -353690148#6.122 -353690148#3 -353690148#3.7 -353690148#3.59 -353690148#3.121 893866056#0 893866056#0.8 893866056#0.64 893866056#0.88 353690154#0 353690154#0.7 353690154#0.49 353690154#0.90 353690154#4 353690154#4.6 353690154#4.49 353690154#4.54 353690154#4.87 -6440371#2 -6440371#2.9 -6440371#2.11 -6440371#2.121 -6440371#2.122 460419029#9 460419029#9.7 460419029#9.45 486874837#0 486874837#1 6447971#10 6447971#10.101 243339793#0 243339793#0.48 -460419011#0 -460419011#0.11 -460419014 -460419014.67 6425689#2 6425689#2.48 -6380913#13 6425675 460419024#5 460419024#5.50 460419024#5.63 460419024#5.69 -621319697#3 -621319697#3.10 -621319697#3.29 -621319697#3.34 -621319697#3.38 -6380913#11 -6380913#11.53 -6463532#3 -6463532#3.45 -6515975#7 -6515975#6 6507809#5 6507809#5.51 -6380913#4 169917351#9 169917351#9.48 169917351#9.87 169917351#12 169917351#12.9 169917351#12.42 169917351#12.90 169917351#16 169917351#16.9 169917351#16.77 6452520#3 6452520#3.7 6452520#3.88 6452520#6 6452520#6.7 185485118#0 185485118#0.64 185485118#0.103 185485118#0.149 6514312#0 6514312#0.70 185485132#0 185485132#0.7 481291012#2 481291012#2.49 481291012#5 481291012#5.49 6498476 6498476.121 6498476.127 6498476.134 -926425193#0 -926425193#0.24 -926425193#0.35 -926425193#0.76 -926425193#0.112 -428246846 -428246846.4 -428246846.17 -428246846.29 8071924#0 8071924#0.13 -6391677 926425191#4 926425191#4.20 6472293#4 6472293#4.162 8071924#4 8071924#5 259277920#0 259277920#0.29 259277920#0.47 259277920#1 259277920#2 259277920#2.23 32143377#0 32143377#0.40 -243349941#2 -6425683#3 -6425683#3.40 -6425683#1 -6425683#0 -6449970#5 -6449970#4 -6449970#3 -6449970#2 -185485127#11 -6396312#0 -6507818#0 -6501822#0 -6501822#0.165 6354836#0 6354836#0.6 6354836#1 6354836#1.40 -642753173 642753174 -6384264 -6489809#2 6415147#6 -6351349#1 -6351349#1.48 -6351349#1.82 -256996977#5 -256996977#5.28 -256996977#5.42 -256996977#5.43 -256996977#2 -256996977#2.16 -256996977#2.48 -460421482#10 -460421482#10.13 -460421482#10.46 -460421482#10.56 -460421482#10.76 -460421482#6 -460421482#6.7 -460421482#6.25 -460421482#6.31 -460421482#6.72 6497081#0 6497081#0.8 6415147#3 6415147#4 -428247193#2 -428247193#2.56 -428247193#2.61 -428247193#2.96 -428247193#2.117 -428247193#2.121 -428247193#2.140 -428247193#2.154 -428247195 -428247195.5 -428247194#1 -428247194#1.9 -428247194#1.28 -157167355#3 -157167355#3.5 -157167355#3.43 -6414318#3 6497081#8 6371720#3 157167355#0"/>
</vehicle>
<vehicle id = "veh27" type= "veh_passenger" depart="21630" >
<route edges =" -814326475#2 -814326475#2.9 -814326475#2.24 -814326475#2.41 -814326475#2.70 -814326475#2.91 -6456052#5 -6456052#5.10 -6456052#5.36 -6456052#5.120 -607690679#4 -607690679#4.9 -607690679#4.87 -607690679#4.94 -607690679#4.99 -797328240#3 -797328240#3.13 -797328240#3.26 -797328240#3.65 -797328240#3.93 -797328240#3.115 -337673342#5 -337673342#5.3 -337673342#5.9 -337673342#5.13 -337673342#5.21 -337673342#5.35 -337673342#5.72 -607691082#1 -607691082#0 -6475815#3 -6475815#3.2 -6475815#3.17 -6475815#3.46 -428089348#3 -428089348#3.15 -428089348#3.21 -428089348#3.28 -353690151#5 -353690151#5.11 -353690151#5.12 -353690151#5.26 -353690151#5.83 -353690151#5.102 -293753571#3 -293753571#3.3 -293753571#3.7 -293753571#3.21 -369877031#7 -369877031#7.10 -369877031#7.98 -369877031#7.191 -749622503#8 -749622503#8.7 -749622503#8.63 -749622503#8.83 -749622503#4 -749622503#4.84 -749622503#2 -749622503#2.9 -749622503#2.29 -749622503#2.64 -749622503#2.84 -369877039 -369877039.36 -369877039.55 -428088903#1 -428088903#1.15 428231560#0 428231560#0.10 338073582#0 338073582#0.20 -6502980#13 -6502980#13.10 -6502980#13.20 -6502980#13.36 -6502980#13.49 -6502980#13.55 -6502980#13.82 -6502980#7 -6502980#7.6 -6502980#7.48 -6502980#7.86 -6502980#3 -6502980#3.7 -6502980#3.69 -6502980#3.84 -169511256#4 -169511256#4.8 -169511256#4.43 -169511256#4.89 -6344598#3 -6344598#3.7 -6344598#3.19 -6344598#3.58 -6344598#3.85 -6344598#3.87 -621283341#3 -621283341#3.7 -621283341#3.91 -621283341#3.97 -621283341#3.101 621283344#0 621283344#0.5 621283344#0.17 621283344#0.28 621283344#0.68 621283344#0.82 621283344#4 621283344#4.5 621283344#4.44 428234723 347094712#0 347094712#0.21 65588108#0 65588108#0.15 65588108#0.50 6463530#0 6463530#0.2 6463530#0.8 6463530#0.13 6463530#0.54 6463530#0.95 -6456044#5 -6456044#5.7 -6456044#5.86 6467490#0 6467490#0.7 6467490#0.49 6467490#0.78 -401497115 -401497115.113 -401497115.170 -401497115.214 -428233435 -460425668 -460425668.5 425646007#0 425646007#0.10 425646007#0.17 425646007#0.20 425646007#0.22 425646007#0.27 425646003#0 425646003#0.15 6465162#0 6465162#0.2 6465162#0.6 6465162#0.11 6465162#0.36 428233434 428233434.31 428233434.58 -739874554#2 -739874554#2.15 -739874554#2.40 -739874554#2.60 -739874554#2.67 622519661 622519661.8 739874553#0 739874553#0.66 739874553#0.80 739874553#0.88 333370569#0 333370569#0.6 333370569#0.13 333370569#0.37 333370569#0.43 333370569#0.66 333370569#0.94 333370569#0.155 333370569#0.178 333370566#0 333370566#0.32 332223494#0 332223494#0.18 332223494#0.35 332223494#0.144 332223494#0.171 6506833#15 6506833#15.8 6506833#15.10 6506833#15.35 6506833#18 6506833#18.45 6506833#20 6506833#20.8 6506833#20.47 6506833#20.85 263712957#13 263712957#13.7 263712957#13.54 263712957#13.186 -760645197#3 -760645197#3.6 -760645197#3.46 -760645197#3.84 -965874293#3 -965874293#3.8 49394452#8 49394452#8.8 49394452#8.188 -6388742#2 -6388742#2.30 -6388742#2.38 965874292#7 965874292#7.8 965874292#7.41 965874292#10 965874292#10.35 965874292#12 965874292#12.8 965874292#12.69 158123767#0 158123767#0.10 158123767#0.11 158123767#0.50 158123767#0.74 158123767#0.86 158123767#0.115 158123767#0.122 158123767#0.134 158123767#0.139 158123767#0.166 795669781 795669781.52 795669781.56 460421481#1 460421481#1.61 460421481#1.85 256997441#0 256997441#0.11 256997441#0.18 256997441#0.62 256997441#3 256997441#3.6 256997441#3.53 -6351349#4 -6351349#4.8 642753173 6354836#3 6354836#4 6354836#5 6354836#5.54 6354836#7 6354836#7.92 6467368#4 6354794#0 -6485999#4 -6485999#4.7 -6485999#2 -6351337#0 -661086629#2 -661086629#2.7 -6371720#6 -185483738#0 -6414318#4 -157167355#0"/>
</vehicle>
</routes>
