<?xml version="1.0" encoding="UTF-8"?>
<routes xmlns:xsi="http: // www.w3.org/2001/XMLSchema-instance" xsi:noNamespaceSchemaLocation="http: // sumo.dlr.de/xsd/routes_file.xsd">
<vType id="veh_passenger" vClass="passenger"/>

<vehicle id = "veh0" type= "veh_passenger" depart="0" >
<route edges =" -813722269#3 -813722269#3.7 -813722269#3.48 -813722269#3.84 -813722269#3.86 620762213#0 620762213#0.9 620762213#0.88 620762212#0 620762212#0.8 620762212#0.52 6343949#6 6343949#7 6343949#8 6343949#8.52 6343949#10 6343949#10.49 6343949#12 6343949#12.47 -525497324#3 -525497324#2 243349944#4 243349944#4.53 243349944#6 243349944#7 -460419011#3 -460419011#2 6464126#3 6464126#3.49 6464126#5 -460419028#3 243349338#0 243349338#0.18 243349338#1 243349338#2 243349338#3 243349338#3.49 243349338#5"/>
</vehicle>
<vehicle id = "veh1" type= "veh_passenger" depart="0" >
<route edges =" -6457203#16 -6457203#16.59 975126260#0 975126260#0.49 -6505136#16 6368504#5 6368504#5.48 6368504#7 6368504#7.50 -6513783#8 -6513783#7 37657905#3 37657905#3.48 37657905#5 37657905#5.10 37657905#5.46 37657905#7 37657905#7.49 476409329 -6383185#5 6384373#1 6384373#2 6384373#2.45 6384373#2.56 -65588097#1 -65588097#1.119 337818330 6463035#0 6463035#0.14 6463035#0.38 6463035#3 -6495801#0 -185485132#12 -185485132#12.125 -185485132#11 -185485132#11.16 243349945#9 243349945#9.50 -6494975#8 -6494975#7 -6494975#6 -6494975#6.81 256994205#3 428246847#0 428246847#0.8 428246847#0.22 6386110#0 6386110#0.16 6386110#0.25 6386110#0.55 -243349338#6 -243349338#6.14"/>
</vehicle>
<vehicle id = "veh2" type= "veh_passenger" depart="0" >
<route edges =" -6522868 -6403883#7 -6403883#6 -6403883#5 -6403883#4 -6403883#3 -6403883#2 158882505#7 158882505#8 8111709#0 8111709#0.47 8111709#2 8111709#2.49 8111709#4 8111709#4.49 -6513783#5 6384359#8 6384359#9 6384359#9.26 -6381494#3 -6381494#3.43 6463017#6 6463017#6.48 -6386837#0 337739268 337739268.124 337739267#0 337818462 337818462.3 337818462.6 337739271#1 337739271#1.6 337739269#0 -460419011#4 243349944#8 -801995081#5 -801995081#5.197 -801995081#5.209 -801995081#2 -801995081#2.109 -801995081#0 243339793#4 243339793#5 243339793#6 243339793#6.50 243339793#6.74 -22917112 -185485118#1 6514312#0 6514312#0.70 -6523501#6 -6523501#6.6 185485127#1 -6494970#4 -6494970#4.172 -6494970#2 -6494970#2.4 -6494970#2.100 6358721#0 6358721#0.9 6415147#4 6415147#5 6415147#6 6351349#2 6351349#3 6351349#3.107 6351349#5 -185483733 -6414318#4 -157167355#0"/>
</vehicle>
<vehicle id = "veh3" type= "veh_passenger" depart="0" >
<route edges =" 817434294 817434294.10 817434294.36 817434294.44 817434294.63 817434294.119 6343949#0 6343949#0.7 6343949#0.86 6343949#3 6343949#3.9 6343949#3.49 620762212#3 6430729#6 6430729#6.47 6430729#6.48 6430729#9 6430729#9.48 6430729#11 6430729#11.51 6430729#13 6430729#13.48 6430729#15 6430729#15.48 6430729#17 6430729#17.51 -620762224#0 -66558981#7 -66558981#7.65 -66558981#7.83 -66558981#7.105 -66558981#7.123 -66558981#2 -66558981#2.131 -66558981#2.234 525497323#2 525497323#2.81 -481291488#2 -481291488#1 -481291488#0 -481291488#0.69 -481291488#0.82 -6447971#10 -6447971#10.11 -6447971#9 -6447971#8 -6447971#7 -6447971#6 -6447971#5 -6447971#4 169917351#6 169917351#7 169917351#7.49 169917351#9 169917351#9.48 169917351#9.87 169917351#12 169917351#12.9 169917351#12.42 169917351#12.90 -6360239#3 -6360239#3.6 -6360239#3.69 -6360239#3.102 6487445#0 6487445#0.8 6415147#0 6415147#0.61 6449462#3 6449462#3.7 6449462#3.50 6449462#3.60 6449462#3.72 6449462#3.87 795669782#0 795669782#0.54 795669782#2 6371720#2 6371720#3 157167355#0"/>
</vehicle>
<vehicle id = "veh4" type= "veh_passenger" depart="3605" >
<route edges =" -813722269#3 -813722269#3.7 -813722269#3.48 -813722269#3.84 -813722269#3.86 -569505976#2 -569505976#2.9 -569505976#2.88 -569505976#2.115 -569505976#2.119 -569505978#1 -569505978#1.10 -569505979 -569505979.32 -569505979.79 337673338#0 337673338#0.14 185882764 185882764.13 185882764.14 185882765 185882765.16 185882765.26 185882765.30 185882765.31 65588077#0 65588077#0.3 65588077#0.5 65588077#0.8 65588077#0.11 65588077#0.15 65588077#0.17 65588077#0.22 65588077#0.41 826314456#0 826314456#0.9 826314456#0.50 826314456#0.96 826314456#0.103 349901822#0 349901822#0.9 349901822#2 349901822#2.21 332092195#0 332092195#0.9 332092195#0.74 460423532#0 460423532#0.2 620762218#0 620762218#0.55 620762218#0.66 620762218#0.68 620762218#0.81 620762218#3 620762218#3.7 -525497324#2 243349944#4 243349944#4.53 243349944#6 243349944#7 -460419011#3 40416132#1 40416132#1.90 -801995081#2 -801995081#2.109 -6464126#4 -6464126#4.47 -460419011#1 -460419011#1.97 -243339793#1 -243339793#1.46 -6447971#10 -6447971#10.11 486874837#2 486874837#2.47 460419013#0 460419013#0.51 801995082 243339793#4 243339793#5 243339793#6 243339793#6.50 243339793#6.74 22917113#0 22917113#0.56 6464126#9 6464126#9.46 -185485132#3 -185485132#3.101 243339793#11 243339793#11.47 243339793#13 243339793#13.49 -6386110#4 -6386110#4.86 -6464126#14 -6464126#14.50 6494975#2 243349338#5"/>
</vehicle>
<vehicle id = "veh5" type= "veh_passenger" depart="3605" >
<route edges =" -6457203#16 -6457203#16.59 975126260#0 975126260#0.49 6505136#17 6505136#17.194 6505136#17.197 6339665#0 6339665#0.2 6339665#0.6 6339665#0.46 603522176#0 603522176#0.48 603522176#2 603522176#2.50 -6381494#15 -6381494#14 -6381494#14.47 -6381494#14.172 -6368504#11 -6368504#11.50 -6368504#11.52 -6513783#8 -170683231#20 -170683231#20.51 -170683231#18 -170683231#18.37 -170683231#18.49 336904472#5 336904472#5.77 6368504#15 6368504#15.40 6368504#15.46 6368504#15.67 476409332#0 476409332#0.44 6383185#8 6383185#8.23 6383185#8.67 6383185#8.93 6383185#8.141 6383185#12 6383185#13 481291017#2 481291017#2.37 481291017#2.43 481291017#2.49 481291017#2.51 481291017#2.59 481291017#2.71 481291017#2.87 481291017#2.112 481291017#2.124 -8071885#1 -8071885#0 -8071885#0.116 735164736 735164736.7 735164736.13 735164737 735164737.10 735164737.15 6451291#0 6451291#0.7 6451291#0.16 6451291#0.45 735164739 735164739.21 735164739.27 735164739.31 6459736#0 6459736#0.54 -6448615#1 -6448615#1.42 -6522860#1 -65588097#11 -65588097#11.42 -65588097#9 6345330#1 -6495798#3 -476409332#6 -6448612#8 -170683231#3 -170683231#2 -170683231#1 -170683231#1.43 170683288#1 170683288#1.76 170683288#1.83 170683288#2 170683288#2.7 170683288#2.14 170683288#2.44 170683288#4 170683288#4.42 170683288#6 6522860#14 6522860#14.12 6522860#14.34 6522860#14.81 6522860#14.110 6522860#14.119 -6349125#3 -6349125#3.8 -6349125#3.20 -6349125#2 -6349125#2.60 -6349125#2.61 -6349125#2.68 -6349125#2.76 -6349125#2.79 -476409332#11 -476409332#11.8 -6349126#4 -6349126#4.29 -6349126#4.47 -6349126#4.62 -6349126#4.68 -6349126#4.76 -6349126#4.79 -6349126#4.104 -854081622#0 -854081622#0.13 -337818332#2 -337818332#2.7 -337818332#2.70 6488417#0 6488417#0.10 382551018 739678024#0 739678024#0.21 739678024#0.22 -428315591#4 -428315591#4.14 -428315591#4.31 -428315591#4.65 -428315591#4.76 -428315591#4.84 -428315591#1 -6356671#2 -6356671#2.8 -6356671#2.34 6349021#0 6464371#0 6464371#0.8 6464371#0.32 40416130#0 40416130#1 6353867#1 6414237#1 -6353172#1 -6353172#0 170683665#10 170683665#10.11 170683665#13 -6369950#2 -6369950#2.24 -6463035#14 -6521828#3 -6521828#3.7 -6521828#3.107 -6521828#3.133 -336908262#5 -336908262#5.80 6353177#0 6353177#0.8 6353177#0.44 6353177#0.135 -6463035#11 -6463035#11.50 6349133#1 -170683665#6 -170683665#6.49 -279467136#1 -6463035#7 -6356676#0 805680044#10 -243349942#2 805658294#4 805658294#4.48 805658294#6 805658294#6.47 -160624558#2 243349945#17 243349945#18 532125609#3 808266757#0 808266757#0.7 -352434874#3 243349945#20 243349945#21 -243349941#11 243349944#30 243349944#30.41 -6409640#11 -6447445#23 -6447445#23.8 -6447445#23.42 -6447445#20 -6447445#20.21 -6447445#20.41 -6447445#17 352434874#1 -243349944#27 -532125609#1 -532125609#0 263665039 263665039.7 263665039.22 263665039.47 352434868 352434868.68 -352434856 -352434856.9 -460419027 -243349331#3 -243349331#3.51 -243349331#3.121 6464130#6 -243349941#4 -6336174#6 -243349331#0 -243349331#0.131 -259277920#2 -259277920#2.56 6506505#4 6506505#5 6506505#6 6506505#6.83 -243349338#12 -243349338#12.2 -6449970#11 -6449970#10 -6336174#3 -6336174#3.40 -359671039#0 -6441276#1 -6441276#1.40 6501822#8 6501822#8.52 6501822#9 6501822#9.6 6501822#10 6501822#11 6464130#0 6464130#0.42 359671039#2 -243349338#9 160624556 160624556.10 438895608#0 438895608#0.54 359671039#4 359671039#4.117 -6447445#14 -6447445#13 -6447445#13.40 6472289#1 -243349944#22 -243349944#22.50 -243349944#20 -243349944#20.50 -6494975#7 6447445#9 6447445#9.49 -22760521#2 -22760521#2.81 -22760521#2.121 428246847#0 428246847#0.8 428246847#0.22 6386110#0 6386110#0.16 6386110#0.25 6386110#0.55 -243349338#6 -243349338#6.14"/>
</vehicle>
<vehicle id = "veh6" type= "veh_passenger" depart="3605" >
<route edges =" 6457203#17 -6428544#18 -6428544#18.43 -6428544#18.144 -6428544#15 -6428544#15.8 -6462093 -6462093.45 -6462093.54 -6462093.65 -6462093.80 -6462093.95 -6462093.117 -6462093.128 -6462093.141 -6462093.175 6323849#2 6323849#3 6323849#3.9 6323849#3.21 6323849#3.30 6323849#3.53 6323849#3.67 -6403883#6 -6403883#5 -6403883#4 -158882511#7 -158882511#7.20 -158882511#7.33 -158882511#4 -158882511#3 -158882511#2 -158882511#2.44 -6368665#4 -6368665#4.121 -6368665#2 -6368665#1 -6368665#1.49 -6368665#1.91 -6368665#1.93 171739214#11 171739214#12 6346524#0 6346524#1 158882517#2 158882517#3 158882517#4 158882517#5 158882517#6 158882517#6.46 158882517#6.66 158882517#6.67 158882517#6.69 158882517#6.71 158882517#6.73 8111708#0 8111708#0.2 8111708#0.5 8111708#0.7 8111708#0.9 8111708#0.12 8111708#0.14 8111708#0.45 8111708#0.50 -6505136#13 -6505136#13.115 8111709#2 8111709#2.49 8111709#4 8111709#4.49 757399066#0 757399066#0.51 757399066#0.87 -6381494#6 -6381494#6.57 -6381494#6.77 -6381494#6.94 -6381494#3 -6381494#3.43 6463017#6 6463017#6.48 6386837#1 6386837#2 6384359#12 6384359#12.14 6384359#12.24 6384359#12.93 8071925#0 8071925#0.9 8071925#0.55 6383185#3 6383185#3.8 6383185#5 -476409329 -791722143#1 -170683231#11 -170683231#11.43 -170683231#9 -170683231#9.43 -6460085#5 -6460085#5.109 -6460085#4 -6460085#4.20 -6460085#3 -6460085#3.55 6384373#2 6384373#2.45 6384373#2.56 -65588097#1 -65588097#1.119 337818330 6463035#0 6463035#0.14 6463035#0.38 -6448612#1 -6448612#1.133 -805680044#4 -805680044#4.8 -805680044#4.49 -805680044#4.92 -805680044#0 -805680044#0.6 -805680044#0.45 -805680044#0.95 -92170540#0 -92170540#0.2 -537678339#1 -537678339#1.11 -737709039#3 -737709039#3.17 -737709039#3.23 -737709039#1 -737709039#1.40 -737709039#1.45 -481291015#1 -481291015#1.3 -481291015#1.42 -292812445#12 -292812445#12.49 337739268 337739268.124 337739267#0 337739267#1 337739271#0 337739271#0.10 337739271#0.13 337739271#1 337739271#1.6 337739269#0 -460419011#4 243349944#8 243349944#9 -396055523#8 -396055523#8.8 243349945#0 243349945#0.6 243349945#0.83 -6360256#9 -6360256#9.6 -6360256#7 -6360256#7.5 -6360256#5 -396055524#1 -396055524#1.29 -396055524#1.40 -396055524#1.64 -396055524#1.86 460419028#0 460419028#0.11 460419028#0.49 460419028#0.79 460419028#0.95 460419028#3 460419028#4 -243339793#4 -801995082 -6380913#14 -6380913#13 6425675 460419024#5 460419024#5.50 460419024#5.63 460419024#5.69 6516509#0 6516509#0.7 6516509#0.30 6516509#0.46 6516509#0.66 6516509#0.90 6516509#0.105 6516509#0.109 6516509#4 6516509#4.6 6516509#4.33 6516509#4.47 6516509#4.52 6516509#4.66 6516509#4.84 6516509#8 6516509#8.7 6516509#8.85 6516509#11 6516509#11.6 6516509#11.34 6516509#11.86 169917351#12 169917351#12.9 169917351#12.42 169917351#12.90 6360239#4 6360239#4.5 6360239#4.44 6360239#4.86 6360239#8 6360239#8.6 6467507#13 6467507#13.11 185485127#0 6523501#5 6523501#5.201 -6514312#1 -6514312#1.8 185485118#1 22917112 243339793#9 243339793#9.48 -185485132#2 -185485132#2.8 481291012#2 481291012#2.49 481291012#5 481291012#5.49 6498476 6498476.121 6498476.127 6498476.134 926425193#1 926425193#1.12 926425193#1.24 926425193#1.34 -926425191#2 -6494970#6 -6494970#6.6 -6494970#4 -6494970#4.172 -6494970#2 -6494970#2.4 -6494970#2.100 6358721#0 6358721#0.9 6415147#4 6415147#5 6415147#6 6415147#7 6354836#1 6354836#1.40 -642753173 6351349#3 6351349#3.107 6351349#5 -185483733 -6414318#4 -157167355#0"/>
</vehicle>
<vehicle id = "veh7" type= "veh_passenger" depart="3605" >
<route edges =" 817434294 817434294.10 817434294.36 817434294.44 817434294.63 817434294.119 6343949#0 6343949#0.7 6343949#0.86 6343949#3 6343949#3.9 6343949#3.49 6343949#6 6343949#7 -8071898#2 6430729#11 6430729#11.51 -65588093#2 6343949#10 6343949#10.49 6440348#11 6440348#11.4 6440348#11.7 6440348#11.62 6440348#11.73 6430729#15 6430729#15.48 525497324#8 292812445#7 292812445#7.46 -620762224#1 -620762224#0 -66558981#7 -66558981#7.65 -66558981#7.83 -66558981#7.105 -66558981#7.123 -66558981#2 -66558981#2.131 -66558981#2.234 -6481166#12 -6481166#11 -6481166#11.122 -6481166#11.125 -6464138#13 -6464138#13.47 -6464138#11 -6464138#11.9 -6464138#11.48 -6464138#11.90 -6464138#7 -6464138#7.10 -6464138#7.47 -6464138#7.91 -22917111#16 -22917111#16.4 -22917111#16.5 -22917111#16.7 -22917111#16.120 -22917111#16.122 353690154#4 353690154#4.6 353690154#4.49 353690154#4.54 353690154#4.87 353690154#8 353690154#8.7 353690154#8.42 353690154#8.50 353690154#8.92 353690154#12 353690154#12.6 353690154#12.32 -6481166#9 -6481166#9.8 -486874837#0 -901419468#4 -901419468#4.51 -901419468#4.132 -901419468#4.164 -901419468#4.186 -901419468#4.196 -901419468#4.197 465971499#0 465971499#0.6 263669069#0 263669069#1 263669069#1.41 263669069#1.48 263669069#1.70 -6515975#8 -6515975#7 -6467507#5 -6467507#5.50 -6467507#3 -6467507#2 -6467507#2.10 -6467507#2.91 -901474741#2 -901474741#2.7 -901474741#2.9 -901474741#2.88 -6440364#9 -6440364#9.7 -6440364#9.83 901474739#7 901474739#7.8 901474739#7.82 6507809#0 6507809#0.7 6507809#0.88 -6481166#4 169917351#4 169917351#4.51 169917351#6 169917351#7 169917351#7.49 -6380913#3 -6380913#3.7 -6380913#3.66 -6380913#3.103 256996975#0 256996975#0.50 256996975#0.62 256996975#0.65 256996975#0.91 6461236#0 6461236#0.9 6461236#0.24 6461236#0.44 6461236#0.58 6461236#0.60 6384260#3 6384260#3.54 -6487445#4 -6487445#4.15 -6487445#4.55 -6487445#1 -6487445#1.78 256996976#3 256996976#3.7 256996976#3.76 460421482#0 460421482#0.8 460421482#0.73 6497081#0 6497081#0.8 -6415147#2 6449462#3 6449462#3.7 6449462#3.50 6449462#3.60 6449462#3.72 6449462#3.87 795669782#0 795669782#0.54 -6414318#0 -6414318#0.76 -6414318#0.81 460418987#0 460418987#0.4 460418987#0.8 460418987#1 460418987#2 -6371704#2 -6371704#2.42 -460418992#2 -460418992#2.50 -460418992#2.92 -337742188#11 -337742188#11.8 -337742188#11.28 -337742188#11.102 -22917670#2 -22917670#2.8 -22917670#2.40 -22917670#2.64 -22917670#2.71 6385335#0 6385335#0.11 6385335#0.13 6385335#0.159 6385335#3 6385335#3.59 6385335#3.109 6385335#3.125 976099001#0 976099001#0.11 976099001#0.44 337742188#3 337742188#3.8 337742188#3.32 337742188#3.58 337742188#3.70 337742188#3.80 337742188#3.99 337742188#3.118 337742188#3.128 22917673#2 22917673#2.9 22917673#2.36 22917673#2.81 22917673#5 22917673#5.15 22917673#5.76 -795846818#7 -795846818#7.6 -795846818#7.174 -22917670#9 -22917670#9.9 -22917670#9.73 -22917667#2 -22917667#2.6 -22917667#2.102 460418978#0 460418978#0.8 460418978#0.76 460418978#3 460418978#3.9 460418978#3.49 369455641#1 369455641#1.28 369455641#1.78 -512126023#7 -512126023#7.8 -512126023#7.19 -512126023#7.31 -512126023#7.44 -512126023#7.91 -512126023#7.107 -512126023#7.111 -512126023#7.245 -512126023#2 -512126023#2.37 -512126023#2.47 -512126023#0 -428247196#1 -428247196#1.16 428100741#0 428100741#0.10 -754699003#6 -754699003#6.36 -6351337#5 -6351337#5.5 -6351337#5.8 -6351337#5.119 6496652#4 6496652#4.7 6367253#5 -754699003#2 -754699003#2.70 -6354794#5 -6354794#5.7 -6354794#5.119 -6496652#8 -6496652#8.7 -22917678#2 -22917678#2.8 -22917678#2.134 -6485999#2 -6351337#0 -661086629#2 -661086629#2.7 -6371720#6 -6371720#5 -6371720#5.41 157167355#0"/>
</vehicle>
<vehicle id = "veh8" type= "veh_passenger" depart="7210" >
<route edges =" -816616074#1 -816616074#1.10 -816616074#1.14 -816616074#1.119 428341734#4 428341734#4.8 428246439#0 428246439#0.14 428246438#0 428246438#0.8 428246440#0 428246440#0.62 800744530#0 800744530#0.11 800744530#0.45 800744530#0.57 800744530#0.111 800744530#0.121 57883609#0 57883609#0.6 57883609#0.57 -826314455#3 -826314455#3.64 -826314455#3.71 -826314455#3.76 -826314455#3.90 -826314455#3.118 825336588#0 825336588#0.7 349901822#2 349901822#2.21 -620762214 179551719 179551719.37 179551719.46 179551719.51 179551719.88 179551719.93 179551719.97 739843348#0 739843348#0.4 739843348#0.9 -460423532#1 -460423532#1.17 -22917111#30 -22917111#30.9 -22917111#30.50 -22917111#30.96 8071900#4 8071900#4.7 8071900#4.49 8071900#4.88 8071900#8 8071900#8.6 8071900#8.7 8071900#8.49 8071900#8.53 -525497324#0 525497323#0 525497323#0.50 525497323#2 525497323#2.81 -481291488#2 -6464138#14 -6481166#10 -6481166#10.6 -6481166#10.8 -6481166#10.120 353690154#15 353690154#15.50 -6447971#10 -6447971#10.11 486874837#2 486874837#2.47 460419013#0 460419013#0.51 801995082 243339793#4 -460419028#4 6464126#6 6360256#2 6360256#2.128 6360256#4 6360256#5 -6447445#2 -6447445#2.7 -6447445#2.86 -396055523#10 -396055523#10.72 -396055523#10.105 -396055523#10.120 -243349944#9 801995081#6 801995081#6.192 337739269#3 337739269#3.69 396055523#5 396055523#5.8 396055523#5.42 243349945#0 243349945#0.6 243349945#0.83 6360256#10 6360256#10.7 6360256#10.57 6360256#10.71 6360256#10.113 6360256#10.122 6360256#10.124 361784407#0 361784407#0.8 361784407#0.38 361784407#0.53 -22917113#7 -22917113#7.10 -22917113#7.19 -22917113#6 243349944#15 243349944#15.48 -185485132#9 -185485132#8 -185485132#8.81 256994205#2 256994205#2.24 256994205#2.72 -6494975#4 -6494975#4.53 243349338#5"/>
</vehicle>
<vehicle id = "veh9" type= "veh_passenger" depart="7210" >
<route edges =" -6457203#16 -6457203#16.59 975126260#0 975126260#0.49 -6505136#16 -6505136#15 8111707#2 8111707#2.47 -603522174#1 6368504#7 6368504#7.50 -6513783#8 -6513783#7 37657905#3 37657905#3.48 6381494#9 6381494#9.36 6381494#9.62 6381494#12 6381494#12.56 6368504#12 6368504#12.37 6368504#12.47 638348589 263666867#3 263666867#3.49 476409333#0 476409333#0.45 476409333#2 476409333#2.45 6460085#12 6460085#12.26 735164737 735164737.10 735164737.15 6522860#0 6522860#0.11 -65588097#11 -65588097#11.42 6523125#1 -6495798#4 6345330#2 -170683288#3 -170683288#3.39 -170683288#3.69 -170683288#3.76 -476409332#8 -6356667#2 170683231#2 170683231#3 170683231#4 170683231#4.50 170683231#4.58 65588097#6 65588097#7 65588097#7.42 -6345330#0 -6460085#8 -6460085#8.39 -6460085#8.66 -6460085#6 -6460085#6.27 -6460085#5 -6460085#5.109 -61151096 -6383185#5 6384373#1 -6460085#1 -6460085#1.27 -6460085#1.86 -6460085#1.119 465799093#0 465799093#0.8 465799093#0.46 465799093#0.91 337818330 428315592#0 428315592#0.12 428315592#0.53 428315592#0.95 -6448612#3 -6448612#3.16 6463035#3 6495801#1 170683665#0 170683665#0.4 170683665#0.48 170683665#0.50 170683665#3 170683665#3.38 -279467136#1 6463035#8 6463035#8.49 6349133#1 170683665#7 6353867#0 6353867#1 6414237#1 6414237#2 6414237#2.7 6414237#2.43 6414237#2.81 -243352868#3 -243352868#3.6 -40416130#5 -40416130#5.43 -40416130#5.45 -6353172#0 -6353177#4 -6353177#3 -6353177#3.7 -6353177#3.98 -6353177#3.134 -160624558#4 -160624558#4.98 805658294#8 -359671039#8 -359671039#8.55 243349945#18 532125609#3 808266757#0 808266757#0.7 808266757#1 -263665040#3 -263665040#3.11 -263665040#3.21 -263665040#3.100 -263665040#2 -263665040#2.22 243349944#29 -243349941#10 -243349941#10.85 -6447445#20 -6447445#20.21 -6447445#20.41 -6447445#17 -6447445#16 -6447445#15 -6447445#14 -6447445#13 -6447445#13.40 -6447445#11 22760521#3 243349942#0 243349942#0.100 243349942#1 243349942#1.25 -805658294#3 -805658294#3.49 -805658294#1 -805658294#1.44 -805658294#1.57 -185485132#11 -185485132#11.16 243349945#9 243349945#9.50 -6494975#8 -6494975#7 -6494975#6 -6494975#6.81 256994205#3 428246847#0 428246847#0.8 428246847#0.22 6386110#0 6386110#0.16 6386110#0.25 6386110#0.55 -243349338#6 -243349338#6.14"/>
</vehicle>
<vehicle id = "veh10" type= "veh_passenger" depart="7210" >
<route edges =" 6457203#17 -6428544#18 -6428544#18.43 -6428544#18.144 -6403883#8 -6403883#7 6323849#5 6323849#5.107 -6457203#15 -6457203#15.22 -6345333 -6403883#5 6368504#0 -6469837#4 -6469837#4.19 -6469837#3 -6469837#2 158882505#8 -6457203#3 -6457203#3.34 -6457203#3.51 -6457203#3.73 -6457203#3.81 -171739214#24 -171739214#24.39 -171739214#24.44 -171739214#24.63 -171739214#20 6403883#1 6403883#2 -158882517#4 -160552467#8 -158882505#5 -158882505#5.47 6411908#3 -158882517#2 -158882517#1 -6368665#2 158882505#2 -6346524#0 -171739214#12 -6346526#5 -6346526#5.121 -6346526#3 -6346526#3.8 -6346526#3.30 -6346526#3.122 158882495#0 158882495#0.6 171739207#0 171739207#0.49 171739207#2 171739207#2.46 171739207#4 171739207#4.40 171739207#4.43 171739207#4.47 171739207#4.50 171739207#4.52 171739207#4.54 171739207#4.77 171739207#4.80 171739207#4.82 171739207#4.85 171739207#4.87 171739207#4.90 171739207#4.113 292812445#0 292812445#0.35 292812445#0.50 6505136#0 6505136#0.18 6505136#0.27 6505136#0.73 6505136#0.87 6505136#0.118 6463017#0 6463017#0.48 6464042#2 6464042#2.9 6384359#6 6384359#6.48 6384359#8 6384359#9 6384359#9.26 -6381494#3 -6381494#3.43 -6381494#1 -6381494#0 292812445#9 292812445#9.49 6386837#0 6386837#1 8071897#0 8071897#0.89 -6444677 481291015#0 481291015#0.20 481291015#0.59 -343521145#3 -343521145#3.32 -343521145#3.66 -343521145#3.101 -343521145#3.142 -343521145#3.155 337739267#0 337739267#1 -481291488#10 -481291488#10.44 -481291488#10.61 -481291488#10.85 -481291488#10.132 -481291488#10.142 243349944#7 243349944#8 -801995081#5 -801995081#5.197 -801995081#5.209 -801995081#2 -801995081#2.109 6464126#5 460419028#4 243339793#5 6360256#1 6360256#1.7 6464126#7 6464126#7.50 22917113#2 243349338#2 -185485132#4 6464126#11 6464126#11.50 -6494975#1 -6494975#1.103 243339793#13 243339793#13.49 243339793#15 243339793#15.46 -6472293#6 -6472293#6.7 -8071924#3 -8071924#3.39 -8071924#3.51 -6391677 -926425191#3 -926425193#1 -926425193#1.9 -926425193#1.20 -926425193#1.31 -926425193#0 -926425193#0.24 -926425193#0.35 -926425193#0.76 -926425193#0.112 -428246846 -428246846.4 -428246846.17 -428246846.29 -481291012#7 -481291012#7.22 -481291012#6 -481291012#6.8 -6494970#7 -926425191#1 -926425191#1.73 -6523501#6 -6523501#6.6 185485127#1 -6494970#4 -6494970#4.172 -169917351#24 -169917351#24.6 -169917351#24.71 -6523501#2 -6523501#2.5 -6523501#2.101 6497081#0 6497081#0.8 6415147#3 6415147#4 6415147#5 -6489809#1 -6489809#1.47 256996977#4 256996977#4.22 256996977#4.24 256996977#4.38 6472293#0 6472293#0.6 6472293#0.29 -6507813#0 6391682#2 6391682#2.12 6391682#2.24 6391682#2.34 6391682#2.45 185485127#6 185485127#7 185485127#7.45 185485127#7.50 6501822#3 6463541#0 6396312#2 -185485117#2 6501822#5 6501822#5.157 8071924#5 259277920#0 259277920#0.29 259277920#0.47 6449970#8 6449970#9 6336174#4 -6506505#4 -6506505#3 -6425683#0 -6449970#5 -6449970#4 -6449970#3 -6449970#2 -185485127#11 -6396312#0 -6507818#0 -6501822#0 -6501822#0.165 6354836#0 6354836#0.6 -6415147#7 6351349#2 642753173 6354836#3 6354836#4 6354836#5 6354836#5.54 6354836#7 6354836#7.92 -6467368#3 6367253#0 6367253#0.7 -6485999#2 -6351337#0 -6467368#0 185483738#3 185483738#3.13 185483738#3.22 -512126022#2 -512126022#2.40 -512126022#2.75 512126021#0 512126021#0.7 512126021#0.31 512126021#0.66 6371720#4 6371720#4.46 6371720#6 -661086629#0 -185483733 -14374224#8 -14374224#8.8 -14374224#8.45 -14374224#8.76 -14374224#8.86 -256997441#2 -256997441#2.27 -256997441#2.71 -256997441#2.77 -428247194#1 -428247194#1.9 -428247194#1.28 -157167355#3 -157167355#3.5 -157167355#3.43 -157167355#0"/>
</vehicle>
<vehicle id = "veh11" type= "veh_passenger" depart="7210" >
<route edges =" -813722269#3 -813722269#3.7 -813722269#3.48 -813722269#3.84 -813722269#3.86 620762213#0 620762213#0.9 620762213#0.88 620762212#0 620762212#0.8 620762212#0.52 -6343949#5 -6343949#5.49 -6343949#5.90 813722270#0 813722270#0.7 813722270#0.42 813722270#0.74 813722270#0.75 813722270#0.121 6430729#3 6430729#3.9 6430729#3.48 6430729#6 6430729#6.47 6430729#6.48 6430729#9 6430729#9.48 6430729#11 6430729#11.51 65588093#3 292812445#3 292812445#3.49 292812445#5 292812445#5.45 -525497324#8 6430729#17 6430729#17.51 -620762224#0 -620762218#5 -620762218#5.44 -620762218#5.106 525497324#3 -6343949#13 -6343949#13.50 -6440348#10 -6440348#10.4 -6440348#10.6 -6440348#10.48 -6440348#10.83 -6440348#7 -6440348#7.9 243349944#0 243349944#0.4 243349944#0.20 243349944#0.49 243349944#4 243349944#4.53 -66558981#2 -66558981#2.131 -66558981#2.234 -6481166#12 -6481166#11 -6481166#11.122 -6481166#11.125 -6464138#13 -6464138#13.47 -6464138#11 -6464138#11.9 -6464138#11.48 -6464138#11.90 -6440371#5 -6440371#5.4 -6440371#5.6 -6440371#5.7 -6440371#5.119 -6440371#5.121 -6440371#2 -6440371#2.9 -6440371#2.11 -6440371#2.121 -6440371#2.122 460419029#9 460419029#9.7 460419029#9.45 486874837#0 486874837#1 -6447971#9 -6447971#8 -263669069#0 -465971499#1 -465971499#1.88 -512168130#2 -512168130#2.10 -512168130#2.12 -512168130#2.65 -512168130#2.197 6467507#0 6467507#0.7 6467507#0.88 -6481166#5 6507809#3 -6447971#4 -6447971#3 -6447971#3.29 -6447971#3.37 -6447971#3.61 881403606#0 881403606#0.12 881403606#0.42 881403606#0.83 881403606#0.85 22917665#0 22917665#0.7 -6445835#1 -6445835#1.53 256996973#0 256996973#0.33 256996973#0.45 256996973#0.49 256996975#0 256996975#0.50 256996975#0.62 256996975#0.65 256996975#0.91 256996976#0 256996976#0.11 256996976#0.20 256996976#0.46 256996976#0.79 256996976#3 256996976#3.7 256996976#3.76 6449462#0 6449462#0.9 6449462#0.46 6415147#2 6497081#2 6497081#2.38 6497081#2.47 6497081#2.53 6497081#2.60 6497081#2.67 6497081#2.70 6497081#2.74 6497081#2.81 6497081#2.120 -460421481#0 -460421481#0.36 -460421481#0.41 795669782#0 795669782#0.54 795669782#2 -6371720#1 -6371720#1.81 -460418987#1 -6414273#1 -6414273#1.22 -460418992#4 -460418992#4.6 -460418992#4.125 6371704#1 6371704#1.36 460418987#3 460418987#3.91 460418978#0 460418978#0.8 460418978#0.76 460418978#3 460418978#3.9 460418978#3.49 -6497081#10 -6497081#10.7 6371720#3 157167355#0"/>
</vehicle>
<vehicle id = "veh12" type= "veh_passenger" depart="10815" >
<route edges =" -813722269#3 -813722269#3.7 -813722269#3.48 -813722269#3.84 -813722269#3.86 620762213#0 620762213#0.9 620762213#0.88 57883609#0 57883609#0.6 57883609#0.57 65588100#0 65588100#0.63 -6343949#6 620762212#3 6430729#6 6430729#6.47 6430729#6.48 6430729#9 6430729#9.48 6430729#11 6430729#11.51 -65588093#2 6343949#10 6343949#10.49 -6440348#10 -6440348#10.4 -6440348#10.6 -6440348#10.48 -6440348#10.83 620762218#3 620762218#3.7 620762218#5 620762218#5.18 620762218#5.80 343521145#0 343521145#0.47 343521145#0.69 337739267#0 337818462 337818462.3 337818462.6 337739271#1 337739271#1.6 337739269#0 -460419011#4 243349944#8 243349944#9 396055523#9 396055523#9.6 396055523#9.20 396055523#9.54 6447445#0 6447445#0.8 6447445#0.87 -6360256#5 256994205#0 256994205#0.67 256994205#1 185485132#7 185485132#7.51 6447445#7 6447445#7.46 6494975#7 243349944#19 243349944#19.47 243349942#0 243349942#0.100 243349942#1 243349942#1.25 243349942#2 279467136#0 279467136#0.117 279467136#0.122 279467136#1 170683665#5 170683665#5.50 6349133#2 6349133#2.9 6349133#3 6414237#0 6414237#0.11 -6353867#1 -6353867#0 170683665#8 -6353177#4 -6463035#11 -6463035#11.50 -6349133#0 336908262#2 336908262#2.49 336908262#4 336908262#4.6 -359671039#10 -359671039#10.86 805658294#9 805658294#9.71 808266757#0 808266757#0.7 808266757#1 -263665040#3 -263665040#3.11 -263665040#3.21 -263665040#3.100 -243349945#20 -243349945#19 -532125609#2 -532125609#1 -532125609#0 -438895608#1 -359671039#3 -359671039#2 -359671039#1 -359671039#0 -6441276#1 -6441276#1.40 6501822#8 6501822#8.52 6501822#9 6501822#9.6 6501822#10 6501822#11 6501822#12 160624556 160624556.10 438895607 438895607.119 -6447445#13 -6447445#13.40 -6447445#11 -22760521#2 -22760521#2.81 -22760521#2.121 428246847#0 428246847#0.8 428246847#0.22 6386110#0 6386110#0.16 6386110#0.25 6386110#0.55 -243349338#6 -243349338#6.14"/>
</vehicle>
<vehicle id = "veh13" type= "veh_passenger" depart="10815" >
<route edges =" -816616074#1 -816616074#1.10 -816616074#1.14 -816616074#1.119 428341734#4 428341734#4.8 428246439#0 428246439#0.14 428246438#0 428246438#0.8 428246440#0 428246440#0.62 800744529#0 800744529#0.7 800744529#0.52 800744529#0.89 -349901821 349901822#0 349901822#0.9 96029553#0 96029553#0.9 96029553#0.15 96029553#0.59 8071900#0 8071900#0.7 8071900#0.18 8071900#0.88 -22917111#26 -22917111#26.7 -22917111#26.41 -22917111#26.121 32135548#5 32135548#5.7 32135548#5.49 32135548#5.88 32135548#9 32135548#9.7 32135548#9.47 32135548#9.63 32135548#9.78 525497323#0 525497323#0.50 525497323#2 525497323#2.81 40416132#0 40416132#0.19 -460419011#2 -460419011#1 -460419011#1.97 243339793#2 243339793#2.49 243339793#4 -460419028#4 6464126#6 6464126#7 6464126#7.50 6464126#9 6464126#9.46 185485132#4 243349338#3 243349338#3.49 243349338#5"/>
</vehicle>
<vehicle id = "veh14" type= "veh_passenger" depart="10815" >
<route edges =" 817434294 817434294.10 817434294.36 817434294.44 817434294.63 817434294.119 6343949#0 6343949#0.7 6343949#0.86 813722270#0 813722270#0.7 813722270#0.42 813722270#0.74 813722270#0.75 813722270#0.121 813722270#5 813722270#5.7 813722270#5.118 6411908#0 -337668916#5 -337668916#5.44 -337668916#5.90 6346526#4 6346526#4.7 -171739214#11 6368665#0 6368665#0.4 6368665#0.6 6368665#0.48 158882505#2 -6346524#0 171739214#13 171739214#14 160552467#6 160552467#6.15 160552467#6.20 160552467#6.50 158882505#6 158882505#7 -6469837#1 -6469837#1.51 -171739214#20 -6403874#2 -6403874#2.90 -337668916#9 -337668916#9.50 -160552467#0 -620762212#5 -620762212#5.7 -620762212#3 6343949#6 -65588100#1 -65588100#1.65 -57883609#2 -57883609#2.42 -57883609#2.93 -800744530#5 -800744530#5.9 -800744530#5.19 -800744530#5.73 -800744530#5.84 -800744530#5.118 -800744528#1 -800744528#1.8 -800744528#1.16 -800744528#1.37 -800744528#1.72 -337673339 -337673337 185882764 185882764.13 185882764.14 185882765 185882765.16 185882765.26 185882765.30 185882765.31 -243338979#28 -243338979#28.13 -243338979#28.49 -243338979#28.142 -243338979#28.143 893866065#3 893866065#3.6 893866065#3.48 893866065#3.88 -353690148#6 -353690148#6.8 -353690148#6.122 -353690148#3 -353690148#3.7 -353690148#3.59 -353690148#3.121 893866056#0 893866056#0.8 893866056#0.64 893866056#0.88 353690154#0 353690154#0.7 353690154#0.49 353690154#0.90 22917111#14 22917111#14.7 22917111#14.9 22917111#14.122 22917111#14.123 22917111#14.125 6464138#4 6464138#4.6 6464138#4.51 6464138#4.88 -6440371#5 -6440371#5.4 -6440371#5.6 -6440371#5.7 -6440371#5.119 -6440371#5.121 353690154#8 353690154#8.7 353690154#8.42 353690154#8.50 353690154#8.92 353690154#12 353690154#12.6 353690154#12.32 353690154#15 353690154#15.50 -6447971#10 -6447971#10.11 -6447971#9 6425689#0 6425689#0.48 -460419007#0 -460419007#0.17 -460419007#0.46 460419008#0 460419008#0.50 -6380913#11 -6380913#11.53 -6380913#7 -6380913#7.22 -6380913#5 6507809#7 6507809#7.46 6507809#7.87 6507809#10 6507809#10.8 6507809#10.91 -6360239#7 -6360239#7.6 -6360239#7.47 -6360239#7.86 -6360239#3 -6360239#3.6 -6360239#3.69 -6360239#3.102 6487445#0 6487445#0.8 6415147#0 6415147#0.61 6415147#2 6497081#2 6497081#2.38 6497081#2.47 6497081#2.53 6497081#2.60 6497081#2.67 6497081#2.70 6497081#2.74 6497081#2.81 6497081#2.120 6497081#6 6497081#6.44 -6414318#2 -6414318#2.8 795669782#2 795669782#3 795846818#0 795846818#0.1 -460418978#2 -460418978#2.5 -460418978#2.73 -460418994#2 -460418994#2.8 -460418994#2.35 -460418994#2.70 -337742188#11 -337742188#11.8 -337742188#11.28 -337742188#11.102 -337742188#8 -337742188#8.6 -337742188#8.83 -337742188#8.106 -337742188#8.123 -337742188#8.140 -337742188#8.159 22917673#2 22917673#2.9 22917673#2.36 22917673#2.81 -22917667#4 -22917667#4.168 22917670#7 22917670#7.7 22917670#7.71 22917670#10 22917670#10.5 22917670#10.34 481291010#3 481291010#3.6 481291010#3.100 369455641#1 369455641#1.28 369455641#1.78 -512126023#7 -512126023#7.8 -512126023#7.19 -512126023#7.31 -512126023#7.44 -512126023#7.91 -512126023#7.107 -512126023#7.111 -512126023#7.245 6496652#0 6496652#0.8 -185483738#8 -185483738#8.6 -185483738#8.58 6485999#0 6485999#0.42 6485999#2 6485999#3 6485999#3.70 -6354794#0 -6467368#4 -6354836#8 -6354836#8.7 -6354836#6 -6354836#6.92 661086630#2 661086630#2.15 661086630#2.53 661086630#2.70 661086630#2.73 -6335280 -6335280.5 -6335280.11 -6335280.113 -620762211#2 -620762211#2.9 -620762211#2.17 -620762211#2.71 -620762211#2.114 -620762211#2.151 -620762211#2.177 -6415147#8 -6415147#7 -6415147#6 6489809#2 -295783215#1 14374224#0 14374224#0.36 14374224#0.80 14374224#0.83 256997441#3 256997441#3.6 256997441#3.53 6351349#5 -185483733 185483738#0 -6371720#5 -6371720#5.41 157167355#0"/>
</vehicle>
<vehicle id = "veh15" type= "veh_passenger" depart="10815" >
<route edges =" -814326475#2 -814326475#2.9 -814326475#2.24 -814326475#2.41 -814326475#2.70 -814326475#2.91 -6456052#5 -6456052#5.10 -6456052#5.36 -6456052#5.120 -607690679#4 -607690679#4.9 -607690679#4.87 -607690679#4.94 -607690679#4.99 -6447455#5 -6447455#5.3 -6447455#5.8 -6447455#5.47 158612542#6 158612542#6.7 158612542#6.50 158612542#6.74 -6415868#5 -6415868#4 -6415868#4.9 -6415868#2 -6415868#2.13 -6415868#2.55 -6415868#1 -6415868#1.48 -460423541#1 -460423541#1.113 -6522850#4 -6522850#4.47 -6522850#4.62 -6522850#4.109 -6522850#4.114 -6522850#4.122 -749622503#30 -749622503#30.5 -749622503#30.9 -749622503#30.79 -749622503#30.85 -749622503#30.120 -749622503#25 -749622503#25.7 -749622503#25.85 -759056694#10 -759056694#10.10 -759056694#10.50 -759056694#10.73 -759056694#10.89 6511397#8 6511397#8.7 6511397#8.84 6462029#14 6462029#14.7 6462029#14.50 6462029#14.89 6462029#14.90 6462029#14.93 368560864#0 368560864#0.2 368560864#0.4 368560864#0.6 368560864#0.79 368560864#0.83 -759056694#2 -759056694#2.7 -759056694#2.25 -759056694#2.48 162631002#0 162631002#0.17 162631002#0.23 162631002#0.27 162631002#0.28 162631002#0.29 162631002#0.30 162631002#0.32 162631002#0.33 738637223#0 738637223#0.15 -165042063#1 -165042063#1.3 -165042063#1.13 -165042063#1.15 -759056491 -759056491.4 -759056491.8 -759056491.13 -759056491.17 -759056491.21 -759056491.26 -759056491.41 -759056491.81 -759056491.83 -759056491.88 -337673342#5 -337673342#5.3 -337673342#5.9 -337673342#5.13 -337673342#5.21 -337673342#5.35 -337673342#5.72 -337673342#0 6343890#0 6343890#0.54 6343890#0.56 6343890#0.58 6343890#0.59 6343890#0.61 -6475815#6 -6475815#6.16 -6475815#4 -6475815#3 -6475815#3.2 -6475815#3.17 -6475815#3.46 -428089348#3 -428089348#3.15 -428089348#3.21 -428089348#3.28 332223491#0 332223491#0.12 6438604#0 6438604#0.3 6438604#0.6 6438604#0.8 6438604#0.10 6438604#0.11 6438604#0.13 6438604#0.44 6438604#0.60 -22927969#14 -22927969#14.8 -22927969#14.47 -22927969#14.89 -22927969#10 -22927969#10.10 -22927969#10.51 -22927969#10.91 -6511397#3 -6511397#3.9 -6511397#3.38 -6511397#3.82 -428227812#1 -428227812#1.9 -428227851#1 -428227851#1.5 -13726934#1 -13726934#1.5 -428227808 -428227847#1 -428227847#1.17 -749622503#15 -749622503#15.9 -749622503#15.31 -749622503#15.46 -749622503#15.51 -749622503#15.67 -749622503#15.85 -749622503#8 -749622503#8.7 -749622503#8.63 -749622503#8.83 -749622503#4 -749622503#4.84 -749622503#2 -749622503#2.9 -749622503#2.29 -749622503#2.64 -749622503#2.84 -369877039 -369877039.36 -369877039.55 -428088903#1 -428088903#1.15 428231018#0 428231018#0.12 428231018#0.30 465971497#0 465971497#0.10 465971497#0.34 369877037#0 369877037#0.9 369877037#0.83 537686684#0 537686684#0.43 537686684#0.53 -332223489#3 -332223489#3.4 -332223489#3.15 -332223489#3.17 -332223489#3.21 -401497115 -401497115.113 -401497115.170 -401497115.214 -428233435 -460425668 -460425668.5 -6457806#2 -6457806#2.21 -6457806#2.25 -6457806#2.30 6465162#0 6465162#0.2 6465162#0.6 6465162#0.11 6465162#0.36 428233434 428233434.31 428233434.58 332223487#0 332223487#0.16 332223487#0.62 332223487#0.98 332223488 332223488.25 332223488.48 332223488.65 332223488.68 332223488.88 347092907#0 347092907#0.3 347092907#0.13 347092907#0.19 347092907#0.26 347092907#0.31 347092907#0.38 347092907#0.40 347092907#0.45 347092907#0.51 332223494#0 332223494#0.18 332223494#0.35 332223494#0.144 332223494#0.171 22760519#0 22760519#0.7 22760519#0.27 22760519#3 22760519#3.9 22760519#3.21 22760519#3.33 22760519#3.91 965874293#0 965874293#0.9 965874293#0.40 -49394452#7 -49394452#7.8 -49394452#7.188 6506833#18 6506833#18.45 -749863323#3 -749863323#3.10 -749863323#3.85 -749863323#3.126 792010743#0 792010743#0.26 792010743#0.59 792010743#2 792010743#2.11 792010743#2.16 573669451#0 573669451#0.28 573669451#0.63 573669451#0.78 573669451#0.83 862387686#0 862387686#0.13 862387686#0.22 -481291008#2 -481291008#2.2 -481291008#2.11 -481291008#2.24 -263721997#5 -263721997#5.3 -263721997#5.15 -263721997#5.48 -263721997#5.83 -263721997#5.84 -263721997#5.86 -8044210#8 -8044210#8.8 -8044210#8.117 6383358#0 6383358#0.7 6383358#0.143 -22917669#12 -22917669#12.38 6491356#4 6491356#4.5 6491356#4.177 6491356#4.178 6496658#0 6496658#0.30 6496658#0.31 -260318962#3 -260318962#3.5 -260318962#1 -260318962#1.73 22917669#17 22917669#17.9 22917669#17.88 22917669#17.94 -6445486#3 -6445486#3.1 -6445486#3.4 -6445486#3.6 -6445486#3.65 -6445486#3.71 -6452772#1 -6452772#1.4 -6452772#1.9 -6452772#1.91 -6388742#21 -6388742#21.6 -6388742#21.71 -6388742#18 -6388742#18.5 -6388742#18.14 -6388742#18.22 -6388742#18.33 -6388742#18.42 -6388742#18.52 -6388742#18.64 -6388742#18.73 -6388742#15 -6388742#15.8 -6388742#15.46 -6388742#15.84 263712958#0 263712958#0.8 263712958#0.45 263712958#0.101 263712958#0.114 263712958#0.117 263712958#0.119 6445479#0 6445479#0.4 6445479#0.8 6445479#0.186 965874292#10 965874292#10.35 965874292#12 965874292#12.8 965874292#12.69 158123767#0 158123767#0.10 158123767#0.11 158123767#0.50 158123767#0.74 158123767#0.86 158123767#0.115 158123767#0.122 158123767#0.134 158123767#0.139 158123767#0.166 795669782#0 795669782#0.54 6414318#1 6414318#1.86 6414318#3 -157167355#0"/>
</vehicle>
<vehicle id = "veh16" type= "veh_passenger" depart="14420" >
<route edges =" -813722269#3 -813722269#3.7 -813722269#3.48 -813722269#3.84 -813722269#3.86 620762213#0 620762213#0.9 620762213#0.88 57883609#0 57883609#0.6 57883609#0.57 -826314455#3 -826314455#3.64 -826314455#3.71 -826314455#3.76 -826314455#3.90 -826314455#3.118 -349901821 349901822#0 349901822#0.9 349901822#2 349901822#2.21 -620762214 -8071898#3 6343949#8 6343949#8.52 -65588093#1 -65588093#1.103 -65588093#1.123 -65588093#1.126 -65588093#1.130 739843348#0 739843348#0.4 739843348#0.9 620762218#0 620762218#0.55 620762218#0.66 620762218#0.68 620762218#0.81 -6440348#7 -6440348#7.9 243349944#0 243349944#0.4 243349944#0.20 243349944#0.49 525497324#2 620762218#5 620762218#5.18 620762218#5.80 -66558981#7 -66558981#7.65 -66558981#7.83 -66558981#7.105 -66558981#7.123 243349944#6 481291488#5 481291488#5.46 481291488#5.56 481291488#5.102 481291488#5.127 481291488#5.144 337739271#0 337739271#0.10 337739271#0.13 337739271#1 337739271#1.6 6343960 6343960.10 6343960.16 6343960.20 6343960.24 -337739268 -337739268.13 292812445#11 292812445#11.49 6444677 8071925#0 8071925#0.9 8071925#0.55 8071925#2 8071925#2.36 8071925#2.74 465799093#0 465799093#0.8 465799093#0.46 465799093#0.91 337818330 6463035#0 6463035#0.14 6463035#0.38 6463035#3 6463035#4 6463035#4.46 6463035#4.48 -6356676#0 -805680044#9 -805680044#9.50 -805680044#7 -805680044#7.48 -805680044#7.91 -22917113#10 -22917113#10.7 -22917113#10.129 -22917113#10.132 -22917113#7 -22917113#7.10 -22917113#7.19 243349945#6 243349945#6.48 243349945#6.88 243349945#9 243349945#9.50 -6494975#8 -6494975#7 -6494975#6 -6494975#6.81 256994205#3 428246847#0 428246847#0.8 428246847#0.22 6386110#0 6386110#0.16 6386110#0.25 6386110#0.55 -243349338#6 -243349338#6.14"/>
</vehicle>
<vehicle id = "veh17" type= "veh_passenger" depart="14420" >
<route edges =" -816616074#1 -816616074#1.10 -816616074#1.14 -816616074#1.119 428341734#4 428341734#4.8 428246439#0 428246439#0.14 428246438#0 428246438#0.8 428246440#0 428246440#0.62 -800744528#1 -800744528#1.8 -800744528#1.16 -800744528#1.37 -800744528#1.72 826314456#0 826314456#0.9 826314456#0.50 826314456#0.96 826314456#0.103 -6476313#2 -6476313#2.11 -6476313#2.29 -6476313#2.98 -6476313#2.99 -6476313#2.103 -6476313#2.107 164418944#4 164418944#4.7 164418944#4.8 164418944#4.29 164418944#4.51 164418944#4.95 32135548#0 32135548#0.6 32135548#0.48 32135548#0.53 32135548#0.64 32135548#0.89 32135548#0.90 32135548#5 32135548#5.7 32135548#5.49 32135548#5.88 32135548#9 32135548#9.7 32135548#9.47 32135548#9.63 32135548#9.78 525497323#0 525497323#0.50 525497323#2 525497323#2.81 40416132#0 40416132#0.19 460419011#3 243349944#8 -801995081#5 -801995081#5.197 -801995081#5.209 256994206#0 256994206#0.8 256994206#0.43 256994206#0.60 460419028#0 460419028#0.11 460419028#0.49 460419028#0.79 460419028#0.95 243349338#0 243349338#0.18 243349338#1 22917113#3 256994205#1 256994205#2 256994205#2.24 256994205#2.72 -6494975#4 -6494975#4.53 243349338#5"/>
</vehicle>
<vehicle id = "veh18" type= "veh_passenger" depart="14420" >
<route edges =" 817434294 817434294.10 817434294.36 817434294.44 817434294.63 817434294.119 6343949#0 6343949#0.7 6343949#0.86 -816616073#1 -816616073#1.7 -569505974#1 -569505974#1.6 -569505974#1.33 -569505976#2 -569505976#2.9 -569505976#2.88 -569505976#2.115 -569505976#2.119 -569505978#1 -569505978#1.10 -569505979 -569505979.32 -569505979.79 -395714916#1 -395714916#1.12 -568043367 -568043367.41 -568043367.79 893866065#0 893866065#0.10 893866065#0.66 893866065#0.92 -243338979#25 -243338979#25.8 -243338979#25.64 -243338979#25.77 -243338979#25.120 893866060#4 893866060#4.6 893866060#4.48 893866060#4.89 893866060#8 893866060#8.7 893866060#8.65 893866060#8.89 6464138#0 6464138#0.7 6464138#0.53 6464138#0.92 6464138#4 6464138#4.6 6464138#4.51 6464138#4.88 6464138#8 6464138#8.7 6464138#8.49 6464138#8.88 6464138#12 6464138#12.51 6464138#14 -481291488#1 6464126#0 6464126#0.46 6464126#0.49 6464126#3 6464126#3.49 6464126#5 460419028#4 460419028#5 460419028#5.67 460419028#5.79 460419028#5.105 460419024#0 460419024#0.9 460419024#0.19 460419024#0.34 460419024#0.53 460419024#0.102 460419024#5 460419024#5.50 460419024#5.63 460419024#5.69 -621319697#3 -621319697#3.10 -621319697#3.29 -621319697#3.34 -621319697#3.38 -460419008#1 -460419008#1.44 -263669069#2 -263669069#2.25 -263669069#2.47 -263669069#2.55 -6447971#7 6463532#0 6463532#0.49 -6515975#7 -6515975#6 -6507809#4 6447971#5 -6467507#3 -6467507#2 -6467507#2.10 -6467507#2.91 -901474741#2 -901474741#2.7 -901474741#2.9 -901474741#2.88 -6440364#9 -6440364#9.7 -6440364#9.83 -901474739#6 -901474739#6.7 -901474739#6.37 -901474739#6.73 22917110#3 22917110#3.6 22917110#3.83 -876005346#3 -876005346#2 -876005346#2.9 -876005346#2.90 -893868548#2 -893868548#2.7 -893868548#2.85 -893868550#2 -893868550#2.7 -893868550#2.86 901477545#0 901477545#0.8 901477545#0.89 901477545#4 901477545#4.7 901477545#4.69 901477545#7 901477545#7.5 901477545#7.83 -901474740#3 -901474740#3.7 -901474740#3.53 -901474740#3.61 -901474740#3.102 256996974#11 256996974#11.6 256996974#11.33 256996974#11.65 256996972 256996972.16 256996972.70 256996978#0 256996978#0.7 256996978#0.68 6515975#0 6515975#0.8 6515975#0.67 6515975#0.104 169917351#7 169917351#7.49 169917351#9 169917351#9.48 169917351#9.87 -6516509#14 -6516509#14.5 -6516509#14.58 -6516509#14.86 6507809#10 6507809#10.8 6507809#10.91 -6360239#7 -6360239#7.6 -6360239#7.47 -6360239#7.86 169917351#16 169917351#16.9 169917351#16.77 -6452520#2 -6452520#2.4 -6452520#2.101 460421482#0 460421482#0.8 460421482#0.73 6497081#0 6497081#0.8 -6415147#2 6449462#3 6449462#3.7 6449462#3.50 6449462#3.60 6449462#3.72 6449462#3.87 795669781 795669781.52 795669781.56 6497081#6 6497081#6.44 6497081#8 6371720#3 157167355#0"/>
</vehicle>
<vehicle id = "veh19" type= "veh_passenger" depart="14420" >
<route edges =" -814326475#2 -814326475#2.9 -814326475#2.24 -814326475#2.41 -814326475#2.70 -814326475#2.91 -6456052#5 -6456052#5.10 -6456052#5.36 -6456052#5.120 -6456052#1 -6456052#1.10 -6456052#1.62 -607691082#1 -607691082#0 -6475815#3 -6475815#3.2 -6475815#3.17 -6475815#3.46 -428089348#3 -428089348#3.15 -428089348#3.21 -428089348#3.28 -428341218#2 -428341218#2.3 -428341218#2.9 -65588069#1 -65588069#1.13 -428089351#1 -428089351#1.16 -293753570#2 -293753570#2.9 -293753570#2.83 293753571#0 293753571#0.5 293753571#0.20 293753571#0.24 -353690151#2 -353690151#2.9 -353690151#2.22 -353690151#2.24 -353690151#2.39 -353690151#2.72 -353690151#2.92 -433500388#1 -433500388#1.11 -433500388#1.46 -433500388#1.73 -433500388#1.113 -433500388#1.115 -428088900#1 -428088900#1.10 -428088894#1 -428088894#1.25 -532166310#2 -532166310#2.3 -532166310#2.13 -369877039 -369877039.36 -369877039.55 -428088903#1 -428088903#1.15 428231560#0 428231560#0.10 338073582#0 338073582#0.20 -6502980#13 -6502980#13.10 -6502980#13.20 -6502980#13.36 -6502980#13.49 -6502980#13.55 -6502980#13.82 -6502980#7 -6502980#7.6 -6502980#7.48 -6502980#7.86 -6502980#3 -6502980#3.7 -6502980#3.69 -6502980#3.84 347094711#0 347094711#0.7 347094711#0.20 347094711#0.38 347094711#0.50 347094711#0.69 347094711#0.73 347094711#0.74 347094712#0 347094712#0.21 65588108#0 65588108#0.15 65588108#0.50 6463530#0 6463530#0.2 6463530#0.8 6463530#0.13 6463530#0.54 6463530#0.95 -6456044#5 -6456044#5.7 -6456044#5.86 6467490#0 6467490#0.7 6467490#0.49 6467490#0.78 -401497115 -401497115.113 -401497115.170 -401497115.214 -428233435 -460425668 -460425668.5 425646007#0 425646007#0.10 425646007#0.17 425646007#0.20 425646007#0.22 425646007#0.27 425646003#0 425646003#0.15 6476922#0 6476922#0.13 6476922#0.24 6476922#0.37 6476922#0.60 6476922#0.67 6413383#0 6413383#0.1 6413383#0.3 6413383#0.6 6413383#0.18 6413383#0.26 6413383#0.47 428233432#0 428233432#0.11 428233432#0.22 332223487#0 332223487#0.16 332223487#0.62 332223487#0.98 893872038 893872038.9 893872038.14 893872038.97 893872038.123 893872038.129 893872038.134 347092915#0 347092915#0.8 347092915#0.32 347092915#0.44 347092915#0.89 347092915#0.182 6506833#11 6506833#11.9 6506833#11.45 6506833#11.74 6506833#11.79 6506833#15 6506833#15.8 6506833#15.10 6506833#15.35 6506833#18 6506833#18.45 749863323#4 749863323#4.7 749863323#4.50 749863323#4.155 749863323#4.186 -965874293#3 -965874293#3.8 49394452#8 49394452#8.8 49394452#8.188 -6388742#2 -6388742#2.30 -6388742#2.38 965874292#7 965874292#7.8 965874292#7.41 965874292#10 965874292#10.35 965874292#12 965874292#12.8 965874292#12.69 158123767#0 158123767#0.10 158123767#0.11 158123767#0.50 158123767#0.74 158123767#0.86 158123767#0.115 158123767#0.122 158123767#0.134 158123767#0.139 158123767#0.166 795669782#0 795669782#0.54 6414318#1 6414318#1.86 6414318#3 -157167355#0"/>
</vehicle>
<vehicle id = "veh20" type= "veh_passenger" depart="18025" >
<route edges =" -813722269#3 -813722269#3.7 -813722269#3.48 -813722269#3.84 -813722269#3.86 620762213#0 620762213#0.9 620762213#0.88 620762212#0 620762212#0.8 620762212#0.52 6343949#6 6343949#7 -8071898#2 -8071898#1 -8071898#1.60 -8071898#1.73 -8071898#1.89 -8071898#1.91 -171739207#7 -171739207#7.16 -171739207#7.38 -171739207#7.41 -171739207#7.44 -171739207#7.46 -171739207#7.49 -171739207#7.51 -171739207#7.74 -171739207#7.76 -171739207#7.78 -171739207#7.82 -171739207#7.85 -171739207#7.89 6403874#0 337668916#10 6463027#0 6463027#0.20 6463027#0.21 6463027#0.23 6463027#0.25 6463027#0.26 6463027#0.28 6463027#0.31 6463027#0.33 6463027#0.35 6463027#0.37 6463027#0.39 6463027#0.76 292812446#5 8071899 6384359#0 6384359#0.22 6384359#0.45 6384359#0.50 6384359#4 6384359#4.13 6384359#4.31 6384359#4.51 6464042#3 6464042#3.16 6464042#3.33 6464042#3.50 6464042#3.56 8111709#4 8111709#4.49 -6513783#5 -6513783#4 -6513783#4.21 -6513783#4.23 -6513783#4.43 -6513783#4.80 6463017#5 -6381494#1 -6381494#0 -292812445#8 -292812445#8.59 -292812445#6 -292812445#6.50 -6440348#14 -6440348#13 -6440348#13.56 -6440348#13.66 -6440348#13.122 -6440348#13.124 6343949#12 6343949#12.47 -525497324#3 -525497324#2 243349944#4 243349944#4.53 243349944#6 -481291488#4 -481291488#4.47 40416132#0 40416132#0.19 460419011#3 460419011#4 337739269#1 337739269#1.30 -801995081#6 -801995081#6.9 243349944#9 396055523#9 396055523#9.6 396055523#9.20 396055523#9.54 6447445#0 6447445#0.8 6447445#0.87 6360256#6 6360256#6.122 6360256#8 6360256#8.125 243349945#3 243349945#3.5 243349945#3.45 243349945#3.49 -22917113#6 -22917113#5 6447445#5 6447445#5.47 185485132#9 185485132#10 185485132#11 185485132#11.115 185485132#12 185485132#12.17 805680044#8 805680044#8.47 -6494975#10 -6494975#10.123 -6494975#10.131 805658294#2 805658294#2.39 805658294#4 805658294#4.48 -6472289#3 -243349945#14 -243349945#14.50 -243349942#0 -243349942#0.28 243349944#21 243349944#21.48 243349944#23 243349944#23.46 -160624558#0 -160624558#0.117 -160624558#0.124 -6447445#13 -6447445#13.40 -6447445#11 -22760521#2 -22760521#2.81 -22760521#2.121 428246847#0 428246847#0.8 428246847#0.22 6386110#0 6386110#0.16 6386110#0.25 6386110#0.55 -243349338#6 -243349338#6.14"/>
</vehicle>
<vehicle id = "veh21" type= "veh_passenger" depart="18025" >
<route edges =" -816616074#1 -816616074#1.10 -816616074#1.14 -816616074#1.119 428341734#4 428341734#4.8 428246439#0 428246439#0.14 428246438#0 428246438#0.8 428246440#0 428246440#0.62 800744529#0 800744529#0.7 800744529#0.52 800744529#0.89 -349901821 -6476313#2 -6476313#2.11 -6476313#2.29 -6476313#2.98 -6476313#2.99 -6476313#2.103 -6476313#2.107 -353690148#9 -353690148#9.7 -353690148#9.10 -353690148#9.12 -353690148#9.13 -353690148#9.38 -353690148#9.143 893866065#7 893866065#7.7 893866065#7.48 893866065#7.90 293775902#0 293775902#0.7 293775902#0.52 293775902#0.90 293775902#4 293775902#4.6 293775902#4.49 293775902#4.88 293775902#8 293775902#8.6 293775902#8.49 293775902#8.91 -6512920#7 -6512920#7.4 -6512920#7.122 -6512920#7.124 -6512920#5 -6512920#5.6 -6512920#5.9 -6512920#5.119 -6512920#5.124 353690154#12 353690154#12.6 353690154#12.32 6481166#10 6481166#10.9 6481166#10.121 6481166#10.123 6464138#14 -481291488#1 -481291488#0 -481291488#0.69 -481291488#0.82 243339793#0 243339793#0.48 -460419011#0 -460419011#0.11 460419013#0 460419013#0.51 801995082 243339793#4 243339793#5 243339793#6 243339793#6.50 243339793#6.74 243339793#9 243339793#9.48 -185485132#2 -185485132#2.8 -185485132#1 -185485132#1.196 -6523501#6 -6523501#6.6 185485127#1 -6494970#4 -6494970#4.172 -6494970#2 -6494970#2.4 -6494970#2.100 460421482#7 460421482#7.7 460421482#7.26 460421482#7.37 460421482#7.70 256996977#0 256996977#0.9 256996977#0.40 6391682#0 6391682#0.62 6507813#0 6507813#1 6507813#1.41 6507813#1.49 6501822#2 185485127#10 185485127#11 6449970#2 6467510#0 6467510#0.41 6506505#0 6506505#0.50 6506505#2 -6425683#0 -6449970#5 -185485117#3 -185485117#2 -185485117#1 -185485117#0 -185485117#0.47 -926425191#3 -926425191#2 6494970#7 481291012#5 481291012#5.49 481291012#7 481291012#7.20 8071924#0 8071924#0.13 8071924#1 8071924#1.18 8071924#1.30 6472293#6 6472293#6.106 795671505#0 795671505#0.10 795671505#0.55 -6464126#16 -6464126#16.47 -6464126#14 -6464126#14.50 6494975#2 243349338#5"/>
</vehicle>
<vehicle id = "veh22" type= "veh_passenger" depart="18025" >
<route edges =" 817434294 817434294.10 817434294.36 817434294.44 817434294.63 817434294.119 6343949#0 6343949#0.7 6343949#0.86 -816616073#1 -816616073#1.7 -569505974#1 -569505974#1.6 -569505974#1.33 -569505976#2 -569505976#2.9 -569505976#2.88 -569505976#2.115 -569505976#2.119 -569505978#1 -569505978#1.10 -569505979 -569505979.32 -569505979.79 -395714916#1 -395714916#1.12 -568043367 -568043367.41 -568043367.79 -293775903#2 -293775903#2.10 -293775903#2.37 -293775903#2.89 -293775903#2.118 -475161306#1 -475161306#1.9 -475161306#1.92 -475161306#1.120 353690155#0 353690155#0.10 353690155#0.51 353690155#0.58 353690155#0.90 353690157#0 353690157#0.5 353690157#0.19 353690157#0.47 353690157#0.72 353690157#0.87 -353690147#3 -353690147#3.7 -353690147#3.110 -353690147#3.122 353690152#0 353690152#0.9 353690152#0.90 460419029#0 460419029#0.7 460419029#0.51 460419029#0.53 460419029#0.89 460419029#5 460419029#5.8 460419029#5.52 460419029#5.91 460419029#9 460419029#9.7 460419029#9.45 -901419468#4 -901419468#4.51 -901419468#4.132 -901419468#4.164 -901419468#4.186 -901419468#4.196 -901419468#4.197 465971499#0 465971499#0.6 6481166#7 6481166#7.43 486874837#1 -6447971#9 6425689#0 6425689#0.48 6425689#2 6425689#2.48 -6380913#13 -6380913#12 -460419008#1 -460419008#1.44 -6515975#8 6463532#2 6463532#2.50 6463536#0 6463536#0.21 6463536#0.30 6463536#0.40 6463536#0.47 6463536#0.52 6463536#0.58 6463536#0.69 6463536#0.79 6463536#0.80 6516509#4 6516509#4.6 6516509#4.33 6516509#4.47 6516509#4.52 6516509#4.66 6516509#4.84 6516509#8 6516509#8.7 6516509#8.85 6516509#11 6516509#11.6 6516509#11.34 6516509#11.86 6516509#15 6516509#15.7 6516509#15.35 6516509#15.48 6516509#15.68 6516509#15.70 6516509#15.79 6516509#15.84 6516509#15.98 6516509#15.101 256996976#0 256996976#0.11 256996976#0.20 256996976#0.46 256996976#0.79 256996976#3 256996976#3.7 256996976#3.76 6449462#0 6449462#0.9 6449462#0.46 6415147#2 6497081#2 6497081#2.38 6497081#2.47 6497081#2.53 6497081#2.60 6497081#2.67 6497081#2.70 6497081#2.74 6497081#2.81 6497081#2.120 6497081#6 6497081#6.44 6497081#8 -6371720#2 -6371720#1 -6371720#1.81 460418987#2 460418987#3 460418987#3.91 22917667#0 22917667#0.7 22917667#0.103 -22917670#6 -22917670#6.8 -22917670#6.44 -22917670#6.72 -22917670#2 -22917670#2.8 -22917670#2.40 -22917670#2.64 -22917670#2.71 6385335#0 6385335#0.11 6385335#0.13 6385335#0.159 6385335#3 6385335#3.59 6385335#3.109 6385335#3.125 976099001#0 976099001#0.11 976099001#0.44 6430364#0 6430364#0.9 6430364#0.41 6430364#0.82 -22917667#6 -22917667#6.7 -22917667#6.62 22917673#5 22917673#5.15 22917673#5.76 481291011#0 481291011#0.6 481291011#0.65 481291010#0 481291010#0.19 481291010#0.23 481291010#0.30 481291010#0.133 -22917670#12 -22917670#12.43 -22917670#12.73 -795846818#4 -795846818#4.7 -795846818#4.95 -795846818#4.102 460418978#3 460418978#3.9 460418978#3.49 369455641#1 369455641#1.28 369455641#1.78 512126022#0 512126022#0.11 512126022#0.46 185483738#4 185483738#4.14 6485999#0 6485999#0.42 6351337#1 6351337#1.120 6351337#3 6351337#3.8 6351337#3.120 6351337#3.123 -754699003#4 -754699003#4.5 -754699003#2 -754699003#2.70 -754699003#0 -157172053#4 -157172053#2 -157172053#2.13 -157172053#2.25 -157172053#2.51 -157172053#2.64 -6440158#5 -6496662#2 -6371282#6 -6371282#5 -6371282#5.108 -6371282#3 -6371282#3.107 -6371282#3.113 -6371282#0 -6371710#0 -6371710#0.81 6522981#5 6522981#5.101 6522981#5.232 6522981#5.253 6522981#5.255 6522981#5.353 -22917677#2 -22917677#2.4 -22917677#2.10 -22917677#2.39 -6496652#8 -6496652#8.7 -6496652#6 -6367253#4 -6367253#4.7 -6367253#4.119 -6367253#1 -6367253#1.137 -6467368#2 -661086629#2 -661086629#2.7 -661086629#0 -185483733 185483738#0 -6371720#5 -6371720#5.41 157167355#0"/>
</vehicle>
<vehicle id = "veh23" type= "veh_passenger" depart="18025" >
<route edges =" -814326475#2 -814326475#2.9 -814326475#2.24 -814326475#2.41 -814326475#2.70 -814326475#2.91 -723013181#2 -723013181#2.9 -723013181#2.18 -723013181#2.38 -723013181#0 -332601014#3 -332601014#3.31 -332601014#3.36 -332601014#3.42 -428246436#1 -428246436#1.13 -428246436#1.22 -428246436#1.37 -808907363#3 -808907363#3.25 -808907363#3.35 -808907363#3.48 -808907363#3.53 -808907363#3.61 607690679#0 607690679#0.3 607690679#0.8 607690679#0.15 607690679#0.94 -6456052#1 -6456052#1.10 -6456052#1.62 -607691082#1 -607691082#0 -6475815#3 -6475815#3.2 -6475815#3.17 -6475815#3.46 -428089348#3 -428089348#3.15 -428089348#3.21 -428089348#3.28 -353690151#5 -353690151#5.11 -353690151#5.12 -353690151#5.26 -353690151#5.83 -353690151#5.102 -353690151#2 -353690151#2.9 -353690151#2.22 -353690151#2.24 -353690151#2.39 -353690151#2.72 -353690151#2.92 -433500388#1 -433500388#1.11 -433500388#1.46 -433500388#1.73 -433500388#1.113 -433500388#1.115 -428088900#1 -428088900#1.10 -428088894#1 -428088894#1.25 -428088883#1 -428088883#1.15 -428088897 -428088888 -737711647 -332223490#1 -332223490#1.19 6514305#0 6514305#0.3 6514305#0.4 6514305#0.9 6514305#0.14 6514305#0.34 6514305#0.54 353690159#1 353690159#1.50 353690159#1.92 353690159#4 353690159#4.6 353690159#4.49 353690159#4.69 353690159#4.76 353690159#4.85 353690159#9 353690159#9.9 353690159#9.28 353690159#9.40 353690159#9.53 353690159#9.88 -243338979#3 -243338979#3.10 -243338979#3.38 -243338979#3.51 -243338979#3.65 -6376376#3 -6376376#3.1 -6376376#3.10 -6376376#3.64 -6376376#3.89 -6435230#8 -6463530#13 -6463530#13.11 -6463530#13.50 -6463530#13.94 -6463530#9 -6463530#9.9 -6463530#9.49 -6463530#9.91 -6456044#5 -6456044#5.7 -6456044#5.86 6467490#0 6467490#0.7 6467490#0.49 6467490#0.78 -401497115 -401497115.113 -401497115.170 -401497115.214 -428233435 -460425668 -460425668.5 -6457806#2 -6457806#2.21 -6457806#2.25 -6457806#2.30 6465162#0 6465162#0.2 6465162#0.6 6465162#0.11 6465162#0.36 428233434 428233434.31 428233434.58 -739874554#2 -739874554#2.15 -739874554#2.40 -739874554#2.60 -739874554#2.67 622519661 622519661.8 739874553#0 739874553#0.66 739874553#0.80 739874553#0.88 333370569#0 333370569#0.6 333370569#0.13 333370569#0.37 333370569#0.43 333370569#0.66 333370569#0.94 333370569#0.155 333370569#0.178 333370566#0 333370566#0.32 6405076#0 6405076#0.10 6405076#0.18 6405076#0.21 6405076#0.58 6405076#0.79 6405076#0.81 6405076#3 6405076#3.4 6405076#3.8 6405076#3.14 6405076#3.20 6405076#3.50 6405076#3.68 6405076#3.84 22917663#0 22917663#0.5 22917663#0.8 22917663#0.11 22917663#0.26 22917663#0.59 22917663#0.67 22917663#0.85 22917663#6 22917663#6.6 22917663#6.34 22917663#6.58 22917663#6.88 6506833#5 6506833#5.9 6506833#5.46 6506833#5.50 6506833#5.72 6506833#5.85 347092915#6 347092915#6.6 347092915#6.44 347092915#6.87 347092915#10 347092915#10.9 347092915#10.68 347092915#10.90 243338978#7 243338978#7.8 243338978#7.38 243338978#7.45 243338978#7.74 965874292#0 965874292#0.8 965874292#0.88 965874292#3 965874292#3.1 965874292#3.48 965874292#3.59 965874292#3.86 965874292#7 965874292#7.8 965874292#7.41 965874292#10 965874292#10.35 965874292#12 965874292#12.8 965874292#12.69 158123767#0 158123767#0.10 158123767#0.11 158123767#0.50 158123767#0.74 158123767#0.86 158123767#0.115 158123767#0.122 158123767#0.134 158123767#0.139 158123767#0.166 795669781 795669781.52 795669781.56 460421481#1 460421481#1.61 460421481#1.85 -428247194#1 -428247194#1.9 -428247194#1.28 -157167355#3 -157167355#3.5 -157167355#3.43 -157167355#0"/>
</vehicle>
<vehicle id = "veh24" type= "veh_passenger" depart="21630" >
<route edges =" -813722269#3 -813722269#3.7 -813722269#3.48 -813722269#3.84 -813722269#3.86 569505974#0 569505974#0.10 569505974#0.37 816616073#0 816616073#0.78 6343949#3 6343949#3.9 6343949#3.49 620762212#3 6430729#6 6430729#6.47 6430729#6.48 -65588100#4 -65588100#4.73 -65588100#4.110 -65588100#1 -65588100#1.65 57883609#3 57883609#3.43 57883609#3.52 57883609#3.60 57883609#3.80 620762214 332092195#0 332092195#0.9 332092195#0.74 -22917111#30 -22917111#30.9 -22917111#30.50 -22917111#30.96 8071900#4 8071900#4.7 8071900#4.49 8071900#4.88 6440348#0 6440348#0.6 6440348#0.84 6440348#0.93 6440348#0.107 6440348#0.114 243349944#0 243349944#0.4 243349944#0.20 243349944#0.49 -525497324#1 -525497324#0 525497323#0 525497323#0.50 66558981#0 66558981#0.29 66558981#0.132 243349944#6 243349944#7 243349944#8 801995081#6 801995081#6.192 481291013#0 481291013#0.16 481291013#0.30 481291013#0.70 481291013#0.75 481291013#0.79 481291013#0.109 481291013#0.113 -481291015#1 -481291015#1.3 -481291015#1.42 -292812445#12 -292812445#12.49 -292812445#10 -292812445#10.48 -620762224#1 -6430729#18 -6430729#18.53 -6430729#16 -6430729#16.50 -6430729#14 -6430729#14.49 65588093#3 292812445#3 292812445#3.49 292812445#5 292812445#5.45 6513783#0 962517344 962517344.33 6381494#1 6463017#6 6463017#6.48 6386837#1 8071897#0 8071897#0.89 8071925#0 8071925#0.9 8071925#0.55 6383185#3 6383185#3.8 6383185#5 6383185#6 -170683231#9 -170683231#9.43 6460085#6 6460085#6.62 476409332#4 476409332#5 -6448612#8 -6448612#7 -6448612#7.6 -6384373#8 -6384373#8.6 -6384373#8.46 -6384373#8.57 -6384373#4 -6384373#4.41 -6384373#4.51 -6460085#1 -6460085#1.27 -6460085#1.86 -6460085#1.119 460399791#0 460399791#0.9 460399791#0.31 460399791#0.97 460399791#0.99 92170540#0 92170540#0.10 396055523#1 396055523#1.42 396055523#1.177 396055523#1.183 396055523#5 396055523#5.8 396055523#5.42 396055523#7 396055523#7.122 243349944#10 243349944#10.7 243349944#10.84 -6360256#7 -6360256#7.5 6447445#3 6447445#3.51 22917113#5 243349944#15 243349944#15.48 243349944#17 243349944#17.50 243349944#19 243349944#19.47 243349944#21 243349944#21.48 -6472289#1 -6447445#11 -22760521#2 -22760521#2.81 -22760521#2.121 428246847#0 428246847#0.8 428246847#0.22 6386110#0 6386110#0.16 6386110#0.25 6386110#0.55 -243349338#6 -243349338#6.14"/>
</vehicle>
<vehicle id = "veh25" type= "veh_passenger" depart="21630" >
<route edges =" -816616074#1 -816616074#1.10 -816616074#1.14 -816616074#1.119 428341734#4 428341734#4.8 428246439#0 428246439#0.14 428246438#0 428246438#0.8 428246440#0 428246440#0.62 800744529#0 800744529#0.7 800744529#0.52 800744529#0.89 825336588#0 825336588#0.7 96029553#0 96029553#0.9 96029553#0.15 96029553#0.59 -893866066#2 -893866066#2.7 -893866066#2.122 32135548#0 32135548#0.6 32135548#0.48 32135548#0.53 32135548#0.64 32135548#0.89 32135548#0.90 -22917111#22 -22917111#22.9 -22917111#22.144 293775902#4 293775902#4.6 293775902#4.49 293775902#4.88 293775902#8 293775902#8.6 293775902#8.49 293775902#8.91 293775902#12 293775902#12.3 293775902#12.50 -6481166#11 -6481166#11.122 -6481166#11.125 6464138#14 -481291488#1 6464126#0 6464126#0.46 6464126#0.49 6464126#3 6464126#3.49 6464126#5 -460419028#3 243349338#0 243349338#0.18 243349338#1 -22917113#2 -22917113#1 -22917113#1.55 -22917112 481291012#0 481291012#0.24 481291012#0.32 185485132#2 185485132#2.104 185485132#3 185485132#3.10 6464126#11 6464126#11.50 6494975#2 243349338#5"/>
</vehicle>
<vehicle id = "veh26" type= "veh_passenger" depart="21630" >
<route edges =" 817434294 817434294.10 817434294.36 817434294.44 817434294.63 817434294.119 816616072#4 816616072#4.7 816616072#4.62 816616072#4.121 816616072#8 816616072#8.6 816616072#8.121 -65588084#2 -65588084#2.10 -65588084#2.91 440887830#0 440887830#0.8 644748880#0 644748880#0.9 644748880#0.50 644748880#0.55 -428246437#1 -428246437#1.8 -428246437#1.22 -428246437#1.55 -265352910 -265352910.3 -265352910.12 -265352910.14 -265352910.31 -265352910.50 -265352910.59 -65588113#4 -65588113#4.4 -65588113#4.7 -65588113#4.20 -65588113#4.122 -65588113#4.153 -65588113#4.246 -428246441#2 -428246441#2.2 -428246441#2.10 -723013876#1 -723013876#1.12 -723013876#1.18 -723013877 158612542#8 158612542#8.37 158612542#8.77 158612542#8.79 -6343952#4 -6343952#4.87 -6343952#4.91 -6461453#10 -6461453#10.30 -6461453#10.33 -6461453#10.45 -6461453#10.87 -6461453#5 -6461453#5.36 -6461453#5.50 -6461453#5.66 -6461453#5.116 -723052304#2 -723052304#2.8 -723052304#0 -723052303 -568586006 -568586005 -568586003 -568586003.29 -568586003.32 -568586003.36 -568586003.39 -568586003.43 -568586003.46 -568586003.50 -568586003.65 6457702#0 6457702#0.9 6457702#0.12 6457702#0.13 6457702#0.15 6457702#0.19 788516767#0 788516767#0.67 -460423539#2 -460423539#2.8 -460423539#2.47 -460423539#2.71 65588116#0 65588116#0.12 65588116#2 65588116#2.4 65588116#2.22 65588116#2.42 65588116#2.48 65588116#2.74 6368829#0 6368829#0.7 6368829#0.9 6368829#0.12 6368829#0.14 6368829#0.18 6368829#0.59 256993082#4 256993082#4.144 6508650#0 6508650#0.8 6508650#0.120 6384350#0 6384350#0.6 6384350#0.52 6384350#0.92 6384350#4 6384350#4.8 6384350#4.48 6384350#4.87 -749754758#1 -749754758#1.7 -749754758#1.102 -6463008#2 -6463008#2.5 -6463008#2.9 -6463008#2.10 -6463008#2.85 -6463008#2.90 6366765#19 6366765#19.4 6366765#19.36 6366765#19.40 6366765#21 6366765#21.3 6366765#21.24 6366765#21.30 6366765#21.34 6366765#21.38 6366765#21.40 6366765#21.42 6366765#21.43 6366765#21.72 393047810#0 393047810#0.7 393047810#0.15 393047810#0.68 621088608#0 621088608#0.43 621088608#0.48 6521205#0 6521205#0.2 6521205#0.12 6521205#0.21 6521205#0.31 6521205#0.34 6521205#0.47 6521205#0.59 6521205#0.69 6521205#0.81 6521205#0.92 749754754#0 749754754#0.11 6374789#3 6374789#3.12 6374789#3.121 6384350#12 6384350#12.6 6384350#12.22 6384350#12.25 6384350#12.26 6384350#12.30 6384350#12.34 6384350#12.43 6384350#12.47 6384350#12.53 6384350#12.55 6384350#12.58 6384350#12.61 6384350#12.70 -6358524#2 -6358524#2.6 -6358524#2.122 -742713664#1 -742713664#1.7 -742713664#1.9 -742713664#1.19 -6358498#1 -6358498#1.87 6474762#3 6474762#3.35 6474762#3.38 6474762#3.42 6474762#3.46 6474762#3.49 6474762#3.54 95600805#0 95600805#0.117 331930455#0 331930455#0.9 331930455#0.42 331930455#0.49 331930455#0.60 331930455#0.86 428246435#0 428246435#0.10 428246433 428246433.72 428246432#0 428246432#0.13 171739214#8 171739214#9 171739214#10 171739214#11 171739214#12 6346524#0 -158882505#2 6368665#2 -158882517#0 -896104580#1 -896104580#1.68 428098978#0 428098978#0.6 428098982 428314470 428314464 428098977 621283354 158882561#0 158882561#0.63 158882561#0.77 158882561#0.95 158882561#0.112 158882561#3 -8071380#1 -8071380#1.2 -8071380#1.5 -8071380#1.8 -8071380#1.11 -8071380#1.45 -8071380#1.57 -8071380#1.61 -8071894#4 -752851600#14 -752851600#14.33 -752851600#12 -752851600#12.41 -752851600#10 -752851600#10.40 -752851600#10.121 6464391#3 6464391#3.6 6464391#3.75 6358524#6 6358524#6.5 6358524#6.55 -6414229#11 6374789#11 6374789#11.72 -6346308#5 -6346308#5.48 -6346308#3 -6346308#3.49 -6346308#1 -6346308#1.49 6508650#4 6508650#4.89 6508650#4.91 6368518#0 6368518#0.1 6368518#0.3 6368518#0.50 6368518#2 6368518#2.46 749754758#11 749754758#11.121 621088606#0 50329139 6479772#0 6479772#0.6 95193144#0 95193144#0.1 95193144#0.37 95193144#0.41 6479772#3 6479772#3.115 6479772#3.120 6428544#0 6428544#0.6 6428544#0.11 -6348400#1 -6348400#1.20 -6348400#1.22 -6348400#1.27 -6348400#0 -621088607#0 8071894#0 6358515#0 6358515#1 6358515#2 6428544#2 6428544#2.6 6384935#4 6384935#4.199 8071658#0 8071658#0.45 -8071381#2 6428544#5 6428544#6 6428544#7 6428544#7.39 6428544#7.45 6428544#7.51 6428544#7.57 6428544#7.76 6428544#7.83 6428544#11 6428544#11.45 6428544#13 -6462093 -6462093.45 -6462093.54 -6462093.65 -6462093.80 -6462093.95 -6462093.117 -6462093.128 -6462093.141 -6462093.175 -6323849#1 -6323849#1.28 -263668130#2 -263668130#2.17 -263668130#2.32 -263668130#2.43 -263668130#2.52 -263668130#2.58 -263668130#2.67 -263668130#2.74 -263668130#2.85 -6346524#6 -6346524#6.24 -6346524#6.38 8071379#0 8071379#0.46 8071379#2 8071379#2.41 -160552467#10 -160552467#10.17 -160552467#10.28 -160552467#10.38 -158882511#4 -158882511#3 -6346524#2 158882517#2 158882517#3 158882517#4 -6403883#2 -158882505#6 -158882505#5 -158882505#5.47 -6411908#2 -6411908#2.56 171739214#14 -160552467#5 -160552467#5.18 -160552467#5.25 -160552467#5.30 -160552467#5.63 -160552467#5.85 337668916#8 337668916#8.47 -6403874#0 -171739207#3 -171739207#3.48 -620762212#5 -620762212#5.7 -620762212#3 -620762212#2 -620762212#2.76 -620762212#2.120 -800744530#5 -800744530#5.9 -800744530#5.19 -800744530#5.73 -800744530#5.84 -800744530#5.118 -800744528#1 -800744528#1.8 -800744528#1.16 -800744528#1.37 -800744528#1.72 -337673339 -337673337 185882764 185882764.13 185882764.14 185882765 185882765.16 185882765.26 185882765.30 185882765.31 395933841 164418944#0 164418944#0.13 164418944#0.18 164418944#0.32 164418944#0.39 164418944#4 164418944#4.7 164418944#4.8 164418944#4.29 164418944#4.51 164418944#4.95 -353690150#2 -353690150#2.8 -353690150#2.144 -893866064#2 -893866064#2.7 -893866064#2.122 -893866059#2 -893866059#2.7 -893866059#2.120 -893866059#2.121 -893866057 -893866057.8 -893866057.9 -893866057.122 -353690149#3 -353690149#3.9 -353690149#3.73 -353690149#3.196 353690160#0 353690160#0.6 353690160#0.88 353690160#3 353690160#3.6 353690160#3.90 179552384#0 179552384#0.7 179552384#0.28 179552384#0.44 179552384#0.49 179552384#0.89 465971499#0 465971499#0.6 6481166#7 6481166#7.43 6481166#9 6481166#9.121 353690154#15 353690154#15.50 -6447971#10 -6447971#10.11 486874837#2 486874837#2.47 -460419014 -460419014.67 6425689#2 6425689#2.48 6380913#14 481291014#0 481291014#0.53 353690153#0 353690153#0.8 353690153#0.25 353690153#0.87 486875123#0 486875123#0.56 486875123#0.88 -185485118#1 -185485118#0 -185485118#0.55 -185485118#0.102 -185485118#0.141 -6467507#14 -6467507#14.73 -6467507#12 -6467507#12.14 -6467507#12.24 -6467507#12.91 -6467507#9 -6467507#9.9 -6380913#5 -6380913#4 169917351#9 169917351#9.48 169917351#9.87 169917351#12 169917351#12.9 169917351#12.42 169917351#12.90 169917351#16 169917351#16.9 169917351#16.77 169917351#19 169917351#19.6 169917351#19.71 -6523501#2 -6523501#2.5 -6523501#2.101 460421482#3 460421482#3.8 460421482#3.48 460421482#3.55 460421482#3.72 6358721#0 6358721#0.9 6415147#4 -428247193#2 -428247193#2.56 -428247193#2.61 -428247193#2.96 -428247193#2.117 -428247193#2.121 -428247193#2.140 -428247193#2.154 -428247195 -428247195.5 -428247194#1 -428247194#1.9 -428247194#1.28 -157167355#3 -157167355#3.5 -157167355#3.43 -6414318#3 -6414318#2 -6414318#2.8 795669782#2 6371720#2 6371720#3 157167355#0"/>
</vehicle>
<vehicle id = "veh27" type= "veh_passenger" depart="21630" >
<route edges =" -814326475#2 -814326475#2.9 -814326475#2.24 -814326475#2.41 -814326475#2.70 -814326475#2.91 -6456052#5 -6456052#5.10 -6456052#5.36 -6456052#5.120 -6456052#1 -6456052#1.10 -6456052#1.62 -607691082#1 -607691082#0 -6475815#3 -6475815#3.2 -6475815#3.17 -6475815#3.46 -428089348#3 -428089348#3.15 -428089348#3.21 -428089348#3.28 -428341218#2 -428341218#2.3 -428341218#2.9 -65588069#1 -65588069#1.13 -428089351#1 -428089351#1.16 293753570#3 293753570#3.10 293753570#3.31 293753570#3.45 293753570#3.54 293753570#3.85 293753570#6 293753570#6.10 293753570#6.38 293753570#6.84 293753570#6.86 759056694#3 759056694#3.7 759056694#3.48 759056694#3.72 759056694#3.90 -6511397#7 -6511397#7.8 -6511397#7.39 -6511397#7.86 -22927969#6 -22927969#6.8 -22927969#6.48 -22927969#6.90 -749622503#18 -749622503#18.7 -749622503#18.55 -749622503#18.81 -428227803#1 -428227803#1.9 -428227860 -428227860.14 -428227828 -428227842 -428227822#1 -428227822#1.17 -428227833#1 -428227833#1.13 -428227838 -428227854#1 -428227854#1.5 -428227818 -428227865#1 -428227865#1.18 -428227899#1 -428227899#1.9 -428227850#1 -428227850#1.24 -428227893#1 -428227893#1.17 -169511255#15 -169511255#15.10 -169511255#15.84 -169511255#12 -169511255#12.10 -169511255#12.35 -169511255#12.49 -169511255#12.84 -169511255#7 -169511255#7.7 -169511255#7.26 -169511255#7.83 -263672096#7 -263672096#7.10 -263672096#7.54 -263672096#7.89 -8111067#2 -8111067#2.7 -8111067#2.83 51817330#3 51817330#3.5 51817330#3.8 51817330#3.26 51817330#3.42 51817330#3.89 -788766516#2 -788766516#2.11 -788766516#2.49 -788766516#2.78 -788766516#2.88 338073583#0 338073583#0.9 338073583#0.24 338073583#0.78 338073583#0.88 338073583#4 338073583#4.8 338073583#4.15 338073583#4.79 338073583#4.84 338073583#7 338073583#7.8 338073583#7.14 338073583#7.85 263672156#3 263672156#3.7 263672156#3.57 263672156#3.86 369877031#0 369877031#0.10 369877031#0.31 369877031#0.46 369877031#0.88 -749622503#8 -749622503#8.7 -749622503#8.63 -749622503#8.83 -749622503#4 -749622503#4.84 -749622503#2 -749622503#2.9 -749622503#2.29 -749622503#2.64 -749622503#2.84 -6522514#4 -6522514#4.7 -6522514#4.36 -6522514#4.61 -6522514#4.66 -6522514#4.67 -6522514#4.73 -332223490#1 -332223490#1.19 -428088887#1 -428088887#1.12 -428088892 -428088886#1 -428088886#1.24 -428088886#1.35 -428088886#1.45 -65588108#1 -65588108#1.18 -65588108#1.53 -332223489#3 -332223489#3.4 -332223489#3.15 -332223489#3.17 -332223489#3.21 -401497115 -401497115.113 -401497115.170 -401497115.214 -537677478#2 -537677478#2.10 -537677478#2.11 -537677478#2.28 -537677478#2.36 -6456046#3 -6456046#3.6 -6456046#3.36 -6456046#3.42 -6456046#3.49 -6456046#3.56 -6456046#3.62 -6456046#3.66 -6456046#3.71 -6456046#3.76 -6456046#3.92 -6456046#3.102 -6456046#3.109 -6456046#3.112 6402586#0 6402586#0.1 6402586#0.4 6402586#0.6 6402586#0.12 6402586#0.35 6402586#0.59 6402586#4 6402586#4.72 6402586#4.75 6402586#4.77 6402586#4.80 208021560#0 208021560#0.2 208021560#0.5 208021560#0.8 208021560#0.11 208021560#0.30 208021560#0.39 208021560#0.44 208021560#0.106 208021560#0.125 208021560#0.133 208021560#0.136 347092914#0 347092914#0.10 347092914#0.14 347092914#0.24 347092914#0.54 347092914#0.75 347092914#0.87 332223488 332223488.25 332223488.48 332223488.65 332223488.68 332223488.88 347092907#0 347092907#0.3 347092907#0.13 347092907#0.19 347092907#0.26 347092907#0.31 347092907#0.38 347092907#0.40 347092907#0.45 347092907#0.51 332223494#0 332223494#0.18 332223494#0.35 332223494#0.144 332223494#0.171 -6506833#14 -6506833#14.9 -6506833#14.14 -6506833#14.43 -6506833#14.79 -347092915#5 -347092915#5.9 -347092915#5.103 -347092915#5.147 -347092915#5.159 -347092915#5.183 6405076#3 6405076#3.4 6405076#3.8 6405076#3.14 6405076#3.20 6405076#3.50 6405076#3.68 6405076#3.84 6405076#6 6405076#6.6 6405076#6.21 6405076#6.26 6405076#6.33 6405076#6.44 6405076#6.49 6405076#6.65 6405076#6.68 6405076#6.71 6405076#6.77 6405076#6.79 6405076#6.82 6405076#6.87 -347092910#2 -347092910#2.9 -347092910#2.11 -347092910#2.14 -347092910#2.40 6397352#0 6397352#0.2 6397352#0.5 6397352#0.9 6397352#0.56 6397352#0.105 617435761#5 617435761#5.33 617435761#5.45 893868551#0 893868551#0.5 893868551#0.89 -32135545#3 -32135545#3.7 -32135545#3.47 -32135545#3.102 256996974#0 256996974#0.8 256996974#0.88 6506833#0 6506833#0.9 6506833#0.37 6506833#0.54 6506833#0.84 22917663#11 22917663#11.6 22917663#11.23 22917663#11.87 -6465130#2 -6465130#2.8 -6465130#2.84 256996974#6 256996974#6.9 256996974#6.21 256996974#6.40 256996974#6.89 901474740#0 901474740#0.9 901474740#0.50 901474740#0.58 901474740#0.104 901477546#0 901477546#0.5 901477546#0.47 901477546#0.85 6507809#0 6507809#0.7 6507809#0.88 -6481166#4 169917351#4 169917351#4.51 -6447971#3 -6447971#3.29 -6447971#3.37 -6447971#3.61 881403606#0 881403606#0.12 881403606#0.42 881403606#0.83 881403606#0.85 881403606#4 881403606#4.53 881403608#2 881403608#2.2 881403608#2.5 881403608#2.8 881403608#2.11 -881403607#2 -881403607#2.42 -881403607#2.60 22917664#0 22917664#0.8 22917664#0.73 965874292#3 965874292#3.1 965874292#3.48 965874292#3.59 965874292#3.86 965874292#7 965874292#7.8 965874292#7.41 965874292#10 965874292#10.35 965874292#12 965874292#12.8 965874292#12.69 158123767#0 158123767#0.10 158123767#0.11 158123767#0.50 158123767#0.74 158123767#0.86 158123767#0.115 158123767#0.122 158123767#0.134 158123767#0.139 158123767#0.166 795669781 795669781.52 795669781.56 460421481#1 460421481#1.61 460421481#1.85 256997441#0 256997441#0.11 256997441#0.18 256997441#0.62 14374224#4 14374224#4.44 14374224#4.54 14374224#4.84 14374224#4.122 -6414318#4 -157167355#0"/>
</vehicle>
</routes>
