<?xml version="1.0" encoding="UTF-8"?>
<routes xmlns:xsi="http: // www.w3.org/2001/XMLSchema-instance" xsi:noNamespaceSchemaLocation="http: // sumo.dlr.de/xsd/routes_file.xsd">
<vType id="veh_passenger" vClass="passenger"/>

<vehicle id = "veh0" type= "veh_passenger" depart="0" >
<route edges =" -813722269#3 -813722269#3.7 -813722269#3.48 -813722269#3.84 -813722269#3.86 620762213#0 620762213#0.9 620762213#0.88 620762212#0 620762212#0.8 620762212#0.52 6343949#6 6343949#7 6343949#8 6343949#8.52 6343949#10 6343949#10.49 6343949#12 6343949#12.47 -525497324#3 -525497324#2 243349944#4 243349944#4.53 243349944#6 243349944#7 -460419011#3 -460419011#2 6464126#3 6464126#3.49 6464126#5 -460419028#3 243349338#0 243349338#0.18 243349338#1 243349338#2 243349338#3 243349338#3.49 243349338#5"/>
</vehicle>
<vehicle id = "veh1" type= "veh_passenger" depart="0" >
<route edges =" -6457203#16 -6457203#16.59 975126260#0 975126260#0.49 -6505136#16 6368504#5 6368504#5.48 6368504#7 6368504#7.50 -6513783#8 -6513783#7 37657905#3 37657905#3.48 37657905#5 37657905#5.10 37657905#5.46 37657905#7 37657905#7.49 476409329 -6383185#5 6384373#1 6384373#2 6384373#2.45 6384373#2.56 -65588097#1 -65588097#1.119 337818330 6463035#0 6463035#0.14 6463035#0.38 6463035#3 -6495801#0 -185485132#12 -185485132#12.125 -185485132#11 -185485132#11.16 243349945#9 243349945#9.50 -6494975#8 -6494975#7 -6494975#6 -6494975#6.81 256994205#3 428246847#0 428246847#0.8 428246847#0.22 6386110#0 6386110#0.16 6386110#0.25 6386110#0.55 -243349338#6 -243349338#6.14"/>
</vehicle>
<vehicle id = "veh2" type= "veh_passenger" depart="0" >
<route edges =" -6522868 -6403883#7 -6403883#6 -6403883#5 -6403883#4 -6403883#3 -6403883#2 158882505#7 158882505#8 8111709#0 8111709#0.47 8111709#2 8111709#2.49 8111709#4 8111709#4.49 -6513783#5 6384359#8 6384359#9 6384359#9.26 -6381494#3 -6381494#3.43 6463017#6 6463017#6.48 -6386837#0 337739268 337739268.124 337739267#0 337818462 337818462.3 337818462.6 337739271#1 337739271#1.6 337739269#0 -460419011#4 243349944#8 -801995081#5 -801995081#5.197 -801995081#5.209 -801995081#2 -801995081#2.109 -801995081#0 243339793#4 243339793#5 243339793#6 243339793#6.50 243339793#6.74 -22917112 -185485118#1 6514312#0 6514312#0.70 -6523501#6 -6523501#6.6 185485127#1 -6494970#4 -6494970#4.172 -6494970#2 -6494970#2.4 -6494970#2.100 6358721#0 6358721#0.9 6415147#4 6415147#5 6415147#6 6351349#2 6351349#3 6351349#3.107 6351349#5 -185483733 -6414318#4 -157167355#0"/>
</vehicle>
<vehicle id = "veh3" type= "veh_passenger" depart="0" >
<route edges =" 817434294 817434294.10 817434294.36 817434294.44 817434294.63 817434294.119 6343949#0 6343949#0.7 6343949#0.86 6343949#3 6343949#3.9 6343949#3.49 620762212#3 6430729#6 6430729#6.47 6430729#6.48 6430729#9 6430729#9.48 6430729#11 6430729#11.51 6430729#13 6430729#13.48 6430729#15 6430729#15.48 6430729#17 6430729#17.51 -620762224#0 -66558981#7 -66558981#7.65 -66558981#7.83 -66558981#7.105 -66558981#7.123 -66558981#2 -66558981#2.131 -66558981#2.234 525497323#2 525497323#2.81 -481291488#2 -481291488#1 -481291488#0 -481291488#0.69 -481291488#0.82 -6447971#10 -6447971#10.11 -6447971#9 -6447971#8 -6447971#7 -6447971#6 -6447971#5 -6447971#4 169917351#6 169917351#7 169917351#7.49 169917351#9 169917351#9.48 169917351#9.87 169917351#12 169917351#12.9 169917351#12.42 169917351#12.90 -6360239#3 -6360239#3.6 -6360239#3.69 -6360239#3.102 6487445#0 6487445#0.8 6415147#0 6415147#0.61 6449462#3 6449462#3.7 6449462#3.50 6449462#3.60 6449462#3.72 6449462#3.87 795669782#0 795669782#0.54 795669782#2 6371720#2 6371720#3 157167355#0"/>
</vehicle>
<vehicle id = "veh4" type= "veh_passenger" depart="3605" >
<route edges =" -816616074#1 -816616074#1.10 -816616074#1.14 -816616074#1.119 428341734#4 428341734#4.8 428246439#0 428246439#0.14 428246438#0 428246438#0.8 428246440#0 428246440#0.62 -800744528#1 -800744528#1.8 -800744528#1.16 -800744528#1.37 -800744528#1.72 826314456#0 826314456#0.9 826314456#0.50 826314456#0.96 826314456#0.103 349901822#0 349901822#0.9 349901822#2 349901822#2.21 332092195#0 332092195#0.9 332092195#0.74 -22917111#30 -22917111#30.9 -22917111#30.50 -22917111#30.96 8071900#4 8071900#4.7 8071900#4.49 8071900#4.88 8071900#8 8071900#8.6 8071900#8.7 8071900#8.49 8071900#8.53 -525497324#0 525497323#0 525497323#0.50 66558981#0 66558981#0.29 66558981#0.132 243349944#6 243349944#7 -460419011#3 40416132#1 40416132#1.90 801995081#3 801995081#3.54 801995081#3.66 243349944#9 243349944#10 243349944#10.7 243349944#10.84 -6360256#7 -6360256#7.5 -6447445#2 -6447445#2.7 -6447445#2.86 396055523#11 396055523#11.17 396055523#11.23 396055523#11.42 396055523#11.62 396055523#11.85 396055523#11.96 396055523#11.121 460419028#0 460419028#0.11 460419028#0.49 460419028#0.79 460419028#0.95 243349338#0 243349338#0.18 243349338#1 -22917113#2 6464126#9 6464126#9.46 6464126#11 6464126#11.50 6494975#2 243349338#5"/>
</vehicle>
<vehicle id = "veh5" type= "veh_passenger" depart="3605" >
<route edges =" -6522868 -6403883#7 6323849#5 6323849#5.107 975126260#0 975126260#0.49 975126260#2 975126260#2.48 603522173#0 603522173#0.48 -6513783#9 -6513783#8 -170683231#20 -170683231#20.51 -6381494#11 -6381494#11.68 -6381494#11.95 37657905#5 37657905#5.10 37657905#5.46 336904472#3 336904472#3.37 -170683231#15 -170683231#15.34 -170683231#15.47 -170683231#15.61 791722143#1 476409329 61151096 6460085#5 6460085#5.26 6460085#6 6460085#6.62 476409332#4 -65588097#6 -170683231#6 -170683231#6.43 -170683231#6.51 -6448612#7 -6448612#7.6 -6448612#5 -6448612#5.30 -428315592#2 -428315592#2.25 -428315592#2.67 -428315592#2.108 -460421484#1 -460421484#1.13 -854082601 -854082601.46 -854082601.87 -169730574#1 -169730574#1.5 -169730574#1.6 -169730574#1.24 92170540#0 92170540#0.10 243334881#0 243334881#0.7 243334881#0.57 243334881#0.96 805680044#1 805680044#1.7 805680044#1.49 805680044#1.91 805680044#5 805680044#5.6 805680044#5.49 -185485132#12 -185485132#12.125 805658294#0 805658294#0.38 805658294#0.52 6494975#10 6494975#10.11 6494975#10.19 805680044#10 -243349942#2 -243349942#1 -243349942#1.104 243349945#13 243349945#13.48 6472289#3 6472289#4 336908262#2 336908262#2.49 6353177#0 6353177#0.8 6353177#0.44 6353177#0.135 6463035#12 6463035#12.7 -6521828#3 -6521828#3.7 -6521828#3.107 -6521828#3.133 -359671039#10 -359671039#10.86 -359671039#8 -359671039#8.55 -359671039#6 -243349944#25 -160624558#0 -160624558#0.117 -160624558#0.124 -6447445#13 -6447445#13.40 -6447445#11 -6447445#10 -6447445#10.48 -6494975#6 -6494975#6.81 256994205#3 428246847#0 428246847#0.8 428246847#0.22 6386110#0 6386110#0.16 6386110#0.25 6386110#0.55 -243349338#6 -243349338#6.14"/>
</vehicle>
<vehicle id = "veh6" type= "veh_passenger" depart="3605" >
<route edges =" 6457203#17 -6428544#18 -6428544#18.43 -6428544#18.144 -6428544#15 -6428544#15.8 -6428544#13 -6428544#12 -6428544#12.50 -6428544#10 -6428544#10.8 -6428544#10.15 -6428544#10.34 -6428544#10.40 -6428544#10.45 -6428544#10.52 -337099385#1 -6523130 -6400858#1 -6400858#1.92 -6400858#1.135 -6400858#1.139 -6400858#1.143 -6400858#1.147 -158882561#3 -158882561#2 -158882561#2.11 -158882561#2.28 -158882561#2.46 -158882561#2.60 -621283354 -6346308#11 -6346308#11.43 -6346308#11.48 -6346308#9 -6346308#9.33 -6346308#9.41 -6346308#6 -6374789#12 -6374789#12.53 -6374789#10 -6374789#10.121 -6374789#8 -6374789#8.5 -6374789#8.120 6384350#12 6384350#12.6 6384350#12.22 6384350#12.25 6384350#12.26 6384350#12.30 6384350#12.34 6384350#12.43 6384350#12.47 6384350#12.53 6384350#12.55 6384350#12.58 6384350#12.61 6384350#12.70 6358524#3 6358524#3.6 6358524#3.97 6358524#6 6358524#6.5 6358524#6.55 6414229#12 -752851600#10 -752851600#10.40 -752851600#10.121 -6464391#2 -6464391#2.4 -6464391#2.68 -621283351#2 -621283351#2.12 -621283351#2.21 158882505#0 158882505#0.42 -6368665#1 -6368665#1.49 -6368665#1.91 -6368665#1.93 171739214#11 171739214#12 6346524#0 158882505#3 6411908#3 -158882517#2 6346524#2 158882511#3 158882511#4 158882511#5 158882511#5.46 158882511#5.58 6403883#4 6368504#0 6368504#1 6368504#1.33 -6457203#13 -6457203#13.26 -6457203#11 -6457203#11.20 -6457203#11.36 -6457203#11.44 -6457203#11.89 -6457203#11.100 -6457203#7 -6457203#7.15 -6457203#7.37 -6457203#7.51 -6457203#7.77 -6457203#7.91 8111709#0 8111709#0.47 8111709#2 8111709#2.49 -6464042#7 -6464042#7.121 -6464042#7.127 -6464042#7.144 -6464042#7.161 6384359#6 6384359#6.48 6384359#8 6384359#9 6384359#9.26 -6381494#3 -6381494#3.43 -6381494#1 -6381494#0 292812445#9 292812445#9.49 337739268 337739268.124 337739267#0 337818462 337818462.3 337818462.6 337739271#1 337739271#1.6 337739269#0 337739269#1 337739269#1.30 337739269#3 337739269#3.69 396055523#5 396055523#5.8 396055523#5.42 396055523#7 396055523#7.122 396055523#9 396055523#9.6 396055523#9.20 396055523#9.54 396055523#11 396055523#11.17 396055523#11.23 396055523#11.42 396055523#11.62 396055523#11.85 396055523#11.96 396055523#11.121 -256994206#2 -256994206#2.11 -256994206#2.27 -256994206#2.62 -801995081#2 -801995081#2.109 -6464126#4 -6464126#4.47 -6464126#2 -6464126#2.46 -6464126#2.49 -481291488#0 -481291488#0.69 -481291488#0.82 -6447971#10 -6447971#10.11 486874837#2 486874837#2.47 -460419014 -460419014.67 6425689#2 6425689#2.48 -6380913#13 6425675 -460419024#4 -460419024#4.23 -460419024#4.72 -460419024#4.91 -460419024#4.105 -460419024#4.115 353690153#0 353690153#0.8 353690153#0.25 353690153#0.87 486875123#0 486875123#0.56 486875123#0.88 -185485118#1 -185485118#0 -185485118#0.55 -185485118#0.102 -185485118#0.141 185485127#0 185485127#1 -6494970#4 -6494970#4.172 169917351#25 169917351#25.7 169917351#25.72 -336908264#2 -336908264#2.145 185485127#4 185485127#4.10 185485127#6 -6472293#2 6507813#1 6507813#1.41 6507813#1.49 -6501822#1 -6501822#0 -6501822#0.165 -256996977#7 -256996977#7.12 -256996977#7.47 -256996977#5 -256996977#5.28 -256996977#5.42 -256996977#5.43 -256996977#2 -256996977#2.16 -256996977#2.48 -460421482#10 -460421482#10.13 -460421482#10.46 -460421482#10.56 -460421482#10.76 6358721#0 6358721#0.9 6415147#4 6415147#5 6489809#2 -295783215#1 14374224#0 14374224#0.36 14374224#0.80 14374224#0.83 256997441#3 256997441#3.6 256997441#3.53 6351349#5 661086629#0 661086629#1 661086629#1.93 6467368#2 6467368#3 6467368#4 6354794#0 -6485999#4 -6485999#4.7 6367253#2 6367253#2.9 6367253#2.121 6496652#6 6496652#7 6496652#7.4 6354794#3 6354794#3.8 6354794#3.120 754699003#1 754699003#1.6 754699003#3 754699003#3.73 754699003#5 754699003#5.6 -6433087#0 -6433087#0.37 -6433087#0.42 -6513107#1 -6513107#1.4 -6513107#1.9 -6513107#1.116 512126023#1 512126023#1.30 512126023#1.40 6496652#0 6496652#0.8 6496652#2 6496652#2.75 -6351337#2 -6351337#2.7 -6485999#1 -6485999#1.42 -185483738#5 -185483738#5.100 -185483738#3 -185483738#3.11 -185483738#3.19 -185483738#2 -185483738#2.93 -185483738#0 -6414318#4 -157167355#0"/>
</vehicle>
<vehicle id = "veh7" type= "veh_passenger" depart="3605" >
<route edges =" -813722269#3 -813722269#3.7 -813722269#3.48 -813722269#3.84 -813722269#3.86 620762213#0 620762213#0.9 620762213#0.88 620762212#0 620762212#0.8 620762212#0.52 -6343949#5 -6343949#5.49 -6343949#5.90 813722270#0 813722270#0.7 813722270#0.42 813722270#0.74 813722270#0.75 813722270#0.121 813722270#5 813722270#5.7 813722270#5.118 6411908#0 337668916#6 337668916#6.37 337668916#6.48 337668916#8 337668916#8.47 6403874#1 6403874#1.38 -171739214#17 -171739214#17.19 -171739214#17.44 160552467#6 160552467#6.15 160552467#6.20 160552467#6.50 158882505#6 158882505#7 -6469837#1 -6469837#1.51 171739214#21 171739214#21.8 171739214#21.28 171739214#21.32 -6457203#0 -8071899 -292812446#5 -292812446#4 -292812446#4.6 -292812446#4.35 -292812446#4.44 -292812446#4.56 -292812446#4.99 -292812446#4.111 292812445#0 292812445#0.35 292812445#0.50 292812445#3 292812445#3.49 -6440348#14 6430729#15 6430729#15.48 6430729#17 6430729#17.51 -620762224#0 -66558981#7 -66558981#7.65 -66558981#7.83 -66558981#7.105 -66558981#7.123 -66558981#2 -66558981#2.131 -66558981#2.234 -6481166#12 -293775902#14 -293775902#14.49 -293775902#14.96 -6512920#7 -6512920#7.4 -6512920#7.122 -6512920#7.124 -6512920#5 -6512920#5.6 -6512920#5.9 -6512920#5.119 -6512920#5.124 353690154#12 353690154#12.6 353690154#12.32 -6481166#9 -6481166#9.8 486874837#1 -6447971#9 6425689#0 6425689#0.48 -460419007#0 -460419007#0.17 -460419007#0.46 460419008#0 460419008#0.50 -6380913#11 -6380913#11.53 -6380913#7 -6380913#7.22 6467507#8 6467507#8.87 6516509#8 6516509#8.7 6516509#8.85 6516509#11 6516509#11.6 6516509#11.34 6516509#11.86 6516509#15 6516509#15.7 6516509#15.35 6516509#15.48 6516509#15.68 6516509#15.70 6516509#15.79 6516509#15.84 6516509#15.98 6516509#15.101 6461236#0 6461236#0.9 6461236#0.24 6461236#0.44 6461236#0.58 6461236#0.60 6384260#3 6384260#3.54 -6487445#4 -6487445#4.15 -6487445#4.55 6415147#0 6415147#0.61 6449462#3 6449462#3.7 6449462#3.50 6449462#3.60 6449462#3.72 6449462#3.87 795669782#0 795669782#0.54 795669782#2 -6371720#1 -6371720#1.81 460418987#2 460418987#3 460418987#3.91 460418978#0 460418978#0.8 460418978#0.76 460418978#3 460418978#3.9 460418978#3.49 -6497081#10 -6497081#10.7 6371720#3 157167355#0"/>
</vehicle>
<vehicle id = "veh8" type= "veh_passenger" depart="7210" >
<route edges =" -813722269#3 -813722269#3.7 -813722269#3.48 -813722269#3.84 -813722269#3.86 620762213#0 620762213#0.9 620762213#0.88 57883609#0 57883609#0.6 57883609#0.57 65588100#0 65588100#0.63 6343949#7 6343949#8 6343949#8.52 -65588093#1 -65588093#1.103 -65588093#1.123 -65588093#1.126 -65588093#1.130 739843348#0 739843348#0.4 739843348#0.9 620762218#0 620762218#0.55 620762218#0.66 620762218#0.68 620762218#0.81 -6440348#7 -6440348#7.9 243349944#0 243349944#0.4 243349944#0.20 243349944#0.49 243349944#4 243349944#4.53 -66558981#2 -66558981#2.131 -66558981#2.234 -6481166#12 -6481166#11 -6481166#11.122 -6481166#11.125 -6481166#10 -6481166#10.6 -6481166#10.8 -6481166#10.120 353690154#15 353690154#15.50 243339793#0 243339793#0.48 243339793#2 243339793#2.49 243339793#4 243339793#5 6360256#1 6360256#1.7 6360256#2 6360256#2.128 243349338#1 -22917113#2 6464126#9 6464126#9.46 185485132#4 243349338#3 243349338#3.49 243349338#5"/>
</vehicle>
<vehicle id = "veh9" type= "veh_passenger" depart="7210" >
<route edges =" -6457203#16 -6457203#16.59 975126260#0 975126260#0.49 6505136#17 6505136#17.194 6505136#17.197 6339665#0 6339665#0.2 6339665#0.6 6339665#0.46 603522176#0 603522176#0.48 6513783#11 6513783#11.206 945555824#0 945555824#0.41 945555824#2 945555824#2.47 -638348588#1 -603522176#5 -603522176#5.43 -603522176#5.84 -6381494#15 -603522173#3 -603522173#3.49 -6513783#9 -6513783#8 -6513783#7 37657905#3 37657905#3.48 37657905#5 37657905#5.10 37657905#5.46 37657905#7 37657905#7.49 476409329 -6383185#5 -6383185#4 -6383185#4.120 -6383185#2 -6383185#2.45 -6383185#2.115 737709039#2 737709039#2.53 737709039#2.59 537678339#0 537678339#0.28 -460399791#2 -460399791#2.15 -460399791#2.17 -460399791#2.82 -460399791#2.105 465799093#0 465799093#0.8 465799093#0.46 465799093#0.91 337818330 6463035#0 6463035#0.14 6463035#0.38 6448612#2 6448612#2.70 6448612#4 6448612#4.11 -6384373#8 -6384373#8.6 -6384373#8.46 -6384373#8.57 65588097#2 65588097#2.69 65588097#4 65588097#4.20 -170683231#6 -170683231#6.43 -170683231#6.51 -170683231#3 6495798#2 476409332#7 -6356667#2 -170683231#1 -170683231#1.43 170683288#1 170683288#1.76 170683288#1.83 170683288#2 170683288#2.7 170683288#2.14 170683288#2.44 6345330#3 6345330#3.60 6345330#3.84 -6349125#2 -6349125#2.60 -6349125#2.61 -6349125#2.68 -6349125#2.76 -6349125#2.79 -476409332#11 -476409332#11.8 -6349126#4 -6349126#4.29 -6349126#4.47 -6349126#4.62 -6349126#4.68 -6349126#4.76 -6349126#4.79 -6349126#4.104 -854081622#0 -854081622#0.13 -19000995#2 -19000995#2.7 -19000995#2.29 535540392#0 535540392#0.117 -6349021#2 -6349021#2.11 -6349021#0 -6356676#2 -6356676#2.14 -6356676#2.25 -6356676#2.40 170683665#3 170683665#3.38 170683665#5 170683665#5.50 6349133#2 6349133#2.9 40416130#1 40416130#2 40416130#3 40416130#3.42 40416130#3.45 -243352868#1 -243352868#1.19 -170683665#11 -170683665#11.54 -6353177#4 -6463035#11 -6463035#11.50 -6463035#9 -6463035#9.48 -279467136#0 -279467136#0.18 -279467136#0.24 -805680044#10 -6494975#10 -6494975#10.123 -6494975#10.131 -6494975#9 -6494975#9.13 -6494975#9.24 -243349945#10 -243349945#10.46 -185485132#10 243349944#17 243349944#17.50 -6494975#7 6447445#9 6447445#9.49 -22760521#2 -22760521#2.81 -22760521#2.121 428246847#0 428246847#0.8 428246847#0.22 6386110#0 6386110#0.16 6386110#0.25 6386110#0.55 -243349338#6 -243349338#6.14"/>
</vehicle>
<vehicle id = "veh10" type= "veh_passenger" depart="7210" >
<route edges =" -6522868 -6403883#7 -6403883#6 6345333 -6457203#14 -6457203#14.67 -6457203#13 -6457203#13.26 -158882511#9 -158882511#9.24 -158882511#8 -158882511#7 -158882511#7.20 -158882511#7.33 -158882511#4 -158882511#3 -158882511#2 -158882511#2.44 -6368665#4 -6368665#4.121 -158882517#0 -896104580#1 -896104580#1.68 -428098979#1 -428098979#1.6 -428314461 -428314458 -428098983 -428098983.7 -428098980#1 -428098980#1.12 6464391#0 6464391#0.12 6464391#0.77 -752851600#7 -752851600#7.4 -752851600#7.57 -752851600#7.63 -752851600#7.66 -752851600#7.67 -752851600#7.73 -752851600#7.93 -752851600#7.95 -171739214#2 -171739214#2.11 -171739214#2.63 -6358524#2 -6358524#2.6 -6358524#2.122 -742713664#1 -742713664#1.7 -742713664#1.9 -742713664#1.19 -6358498#1 -6358498#1.87 6474762#3 6474762#3.35 6474762#3.38 6474762#3.42 6474762#3.46 6474762#3.49 6474762#3.54 6474762#5 6474762#5.49 6474762#5.86 428098988#0 428098988#0.8 428098988#0.9 428098988#0.54 428098988#0.75 428246434#0 428246434#0.18 428246435#0 428246435#0.10 428246433 428246433.72 428246432#0 428246432#0.13 171739214#8 171739214#9 171739214#10 171739214#11 171739214#12 6346524#0 6346524#1 158882517#2 -6411908#3 -6411908#2 -6411908#2.56 171739214#14 160552467#6 160552467#6.15 160552467#6.20 160552467#6.50 158882505#6 -6403883#1 171739214#20 171739214#21 171739214#21.8 171739214#21.28 171739214#21.32 6457203#1 6457203#1.8 6457203#1.16 6457203#1.38 6457203#1.55 8111709#0 8111709#0.47 8111709#2 8111709#2.49 8111709#4 8111709#4.49 -6513783#5 6384359#8 6384359#9 6384359#9.26 -6381494#3 -6381494#3.43 6463017#6 6463017#6.48 -6386837#0 337739268 337739268.124 337739267#0 337739267#1 -481291488#10 -481291488#10.44 -481291488#10.61 -481291488#10.85 -481291488#10.132 -481291488#10.142 243349944#7 243349944#8 -801995081#5 -801995081#5.197 -801995081#5.209 -40416132#1 -40416132#1.8 -460419011#2 6464126#3 6464126#3.49 6464126#5 6464126#6 -6360256#1 -6360256#1.102 -6360256#0 -6360256#0.8 486875123#0 486875123#0.56 486875123#0.88 22917112 243339793#9 243339793#9.48 243339793#11 243339793#11.47 243339793#13 243339793#13.49 6386110#5 6386110#5.80 428246845 428246846 428246846.12 428246846.24 428246846.37 926425193#0 926425193#0.8 926425193#0.43 926425193#0.84 926425193#0.95 926425193#1 926425193#1.12 926425193#1.24 926425193#1.34 -926425191#2 -6494970#6 -6494970#6.6 185485127#2 185485127#2.70 336908264#2 336908264#2.29 -169917351#27 -169917351#27.11 -169917351#27.76 -6494970#2 -6494970#2.4 -6494970#2.100 6358721#0 6358721#0.9 6415147#4 428247193#3 428247193#3.27 486632638#0 486632638#0.14 486632638#0.27 256996977#0 256996977#0.9 256996977#0.40 6489809#0 6489809#0.40 6415147#6 6415147#7 6354836#1 6354836#1.40 -642753173 6351349#3 6351349#3.107 6351349#5 -185483733 -14374224#8 -14374224#8.8 -14374224#8.45 -14374224#8.76 -14374224#8.86 -256997441#2 -256997441#2.27 -256997441#2.71 -256997441#2.77 -428247194#1 -428247194#1.9 -428247194#1.28 -157167355#3 -157167355#3.5 -157167355#3.43 -157167355#0"/>
</vehicle>
<vehicle id = "veh11" type= "veh_passenger" depart="7210" >
<route edges =" 817434294 817434294.10 817434294.36 817434294.44 817434294.63 817434294.119 816616072#4 816616072#4.7 816616072#4.62 816616072#4.121 816616072#8 816616072#8.6 816616072#8.121 158882495#0 158882495#0.6 -813722270#7 -813722270#7.11 -813722270#7.122 6430729#3 6430729#3.9 6430729#3.48 6430729#6 6430729#6.47 6430729#6.48 6430729#9 6430729#9.48 6430729#11 6430729#11.51 6430729#13 6430729#13.48 6430729#15 6430729#15.48 6430729#17 6430729#17.51 -620762224#0 -66558981#7 -66558981#7.65 -66558981#7.83 -66558981#7.105 -66558981#7.123 -243349944#5 -243349944#5.51 -525497324#1 -525497324#0 -179552126 -179552126.19 -179552126.34 -179552126.50 -179552126.90 -6440371#11 -6440371#11.12 -6440371#11.144 293775902#8 293775902#8.6 293775902#8.49 293775902#8.91 -6512920#7 -6512920#7.4 -6512920#7.122 -6512920#7.124 -6464138#11 -6464138#11.9 -6464138#11.48 -6464138#11.90 -6440371#5 -6440371#5.4 -6440371#5.6 -6440371#5.7 -6440371#5.119 -6440371#5.121 -6440371#2 -6440371#2.9 -6440371#2.11 -6440371#2.121 -6440371#2.122 -460419029#8 -460419029#8.7 -460419029#8.46 -460419029#8.90 -22917111#10 -22917111#10.9 -22917111#10.32 -22917111#10.71 -22917111#10.74 -22917111#10.76 -22917111#10.93 -22917111#10.155 -22917111#10.196 353690160#3 353690160#3.6 353690160#3.90 179552384#0 179552384#0.7 179552384#0.28 179552384#0.44 179552384#0.49 179552384#0.89 465971499#0 465971499#0.6 263669069#0 263669069#1 263669069#1.41 263669069#1.48 263669069#1.70 460419009#0 460419009#0.64 460419009#0.93 460419007#1 460419007#1.26 460419013#0 460419013#0.51 -6380913#14 -6380913#13 -6380913#12 460419008#2 460419008#2.37 460419008#2.41 460419008#2.47 460419008#2.65 6516509#0 6516509#0.7 6516509#0.30 6516509#0.46 6516509#0.66 6516509#0.90 6516509#0.105 6516509#0.109 -6463536#1 -6463536#1.10 -6463536#1.11 -6463536#1.22 -6463536#1.32 -6463536#1.39 -6463536#1.43 -6463536#1.50 -6463536#1.60 -6463536#1.69 -6380913#7 -6380913#7.22 -6467507#7 -6467507#7.46 -6467507#5 -6467507#5.50 -6467507#3 -6467507#2 -6467507#2.10 -6467507#2.91 -901474742#2 -901474742#2.5 -901474742#2.43 -901474742#2.83 6507809#0 6507809#0.7 6507809#0.88 -6481166#4 169917351#4 169917351#4.51 -6447971#3 -6447971#3.29 -6447971#3.37 -6447971#3.61 256996978#0 256996978#0.7 256996978#0.68 6515975#0 6515975#0.8 6515975#0.67 6515975#0.104 6515975#4 6515975#4.43 6507809#5 6507809#5.51 6507809#7 6507809#7.46 6507809#7.87 6516509#11 6516509#11.6 6516509#11.34 6516509#11.86 169917351#12 169917351#12.9 169917351#12.42 169917351#12.90 169917351#16 169917351#16.9 169917351#16.77 -6452520#2 -6452520#2.4 -6452520#2.101 -256996976#5 -256996976#5.5 -256996976#5.74 6487445#0 6487445#0.8 6415147#0 6415147#0.61 6415147#2 6497081#2 6497081#2.38 6497081#2.47 6497081#2.53 6497081#2.60 6497081#2.67 6497081#2.70 6497081#2.74 6497081#2.81 6497081#2.120 6497081#6 6497081#6.44 -6414318#2 -6414318#2.8 -6414318#0 -6414318#0.76 -6414318#0.81 460418987#0 460418987#0.4 460418987#0.8 460418987#1 460418987#2 460418987#3 460418987#3.91 -460418994#2 -460418994#2.8 -460418994#2.35 -460418994#2.70 -337742188#11 -337742188#11.8 -337742188#11.28 -337742188#11.102 -337742188#8 -337742188#8.6 -337742188#8.83 -337742188#8.106 -337742188#8.123 -337742188#8.140 -337742188#8.159 -337742188#5 -337742188#5.9 -337742188#5.19 -337742188#5.37 -337742188#5.56 -337742188#5.67 -337742188#5.78 -337742188#5.104 -337742188#5.128 6430364#0 6430364#0.9 6430364#0.41 6430364#0.82 -22917667#6 -22917667#6.7 -22917667#6.62 -22917667#4 -22917667#4.168 22917670#7 22917670#7.7 22917670#7.71 -795846818#4 -795846818#4.7 -795846818#4.95 -795846818#4.102 -795846818#1 -795846818#1.9 -795669782#3 6371720#2 6497081#9 6497081#9.126 369455641#1 369455641#1.28 369455641#1.78 512126021#0 512126021#0.7 512126021#0.31 512126021#0.66 157167355#0"/>
</vehicle>
<vehicle id = "veh12" type= "veh_passenger" depart="10815" >
<route edges =" -813722269#3 -813722269#3.7 -813722269#3.48 -813722269#3.84 -813722269#3.86 -569505976#2 -569505976#2.9 -569505976#2.88 -569505976#2.115 -569505976#2.119 428246438#0 428246438#0.8 428246440#0 428246440#0.62 800744529#0 800744529#0.7 800744529#0.52 800744529#0.89 825336588#0 825336588#0.7 349901822#2 349901822#2.21 332092195#0 332092195#0.9 332092195#0.74 460423532#0 460423532#0.2 -739843348#1 -739843348#1.10 -739843348#1.15 65588093#0 65588093#0.3 65588093#0.6 65588093#0.9 65588093#0.30 65588093#2 65588093#3 6505136#0 6505136#0.18 6505136#0.27 6505136#0.73 6505136#0.87 6505136#0.118 6463017#0 6463017#0.48 6463017#2 6463017#2.44 6463017#2.48 6463017#5 6463017#6 6463017#6.48 6386837#1 6386837#2 6384359#12 6384359#12.14 6384359#12.24 6384359#12.93 -6444677 -292812445#12 -292812445#12.49 337739268 337739268.124 337739267#0 337739267#1 -481291488#10 -481291488#10.44 -481291488#10.61 -481291488#10.85 -481291488#10.132 -481291488#10.142 243349944#7 243349944#8 243349944#9 -396055523#8 -396055523#8.8 243349945#0 243349945#0.6 243349945#0.83 243349945#3 243349945#3.5 243349945#3.45 243349945#3.49 243349945#6 243349945#6.48 243349945#6.88 243349945#9 243349945#9.50 243349945#11 243349945#11.47 243349945#13 243349945#13.48 -6472289#2 243349944#23 243349944#23.46 160624558#1 160624558#2 805658294#8 -359671039#8 -359671039#8.55 243349945#18 243349945#19 -352434874#2 -243349944#27 -532125609#1 -6447445#15 -6447445#14 -6447445#13 -6447445#13.40 -6447445#11 -22760521#2 -22760521#2.81 -22760521#2.121 428246847#0 428246847#0.8 428246847#0.22 6386110#0 6386110#0.16 6386110#0.25 6386110#0.55 -243349338#6 -243349338#6.14"/>
</vehicle>
<vehicle id = "veh13" type= "veh_passenger" depart="10815" >
<route edges =" -816616074#1 -816616074#1.10 -816616074#1.14 -816616074#1.119 428341734#4 428341734#4.8 428246439#0 428246439#0.14 428246438#0 428246438#0.8 428246440#0 428246440#0.62 -800744528#1 -800744528#1.8 -800744528#1.16 -800744528#1.37 -800744528#1.72 826314456#0 826314456#0.9 826314456#0.50 826314456#0.96 826314456#0.103 349901822#0 349901822#0.9 96029553#0 96029553#0.9 96029553#0.15 96029553#0.59 8071900#0 8071900#0.7 8071900#0.18 8071900#0.88 -22917111#26 -22917111#26.7 -22917111#26.41 -22917111#26.121 32135548#5 32135548#5.7 32135548#5.49 32135548#5.88 32135548#9 32135548#9.7 32135548#9.47 32135548#9.63 32135548#9.78 525497324#0 -8071900#12 -8071900#12.43 -8071900#12.47 -8071900#12.89 -8071900#12.90 6440348#0 6440348#0.6 6440348#0.84 6440348#0.93 6440348#0.107 6440348#0.114 6440348#6 6440348#6.25 620762218#3 620762218#3.7 620762218#5 620762218#5.18 620762218#5.80 -66558981#7 -66558981#7.65 -66558981#7.83 -66558981#7.105 -66558981#7.123 243349944#6 -481291488#4 -481291488#4.47 40416132#0 40416132#0.19 40416132#1 40416132#1.90 -801995081#2 -801995081#2.109 6464126#5 6464126#6 6464126#7 6464126#7.50 6464126#9 6464126#9.46 6464126#11 6464126#11.50 6494975#2 243349338#5"/>
</vehicle>
<vehicle id = "veh14" type= "veh_passenger" depart="10815" >
<route edges =" 817434294 817434294.10 817434294.36 817434294.44 817434294.63 817434294.119 6343949#0 6343949#0.7 6343949#0.86 6343949#3 6343949#3.9 6343949#3.49 -620762212#2 -620762212#2.76 -620762212#2.120 -800744530#5 -800744530#5.9 -800744530#5.19 -800744530#5.73 -800744530#5.84 -800744530#5.118 -428246440#1 -428246440#1.7 -428246438#1 -428246438#1.17 -569505978#1 -569505978#1.10 -569505979 -569505979.32 -569505979.79 337673338#0 337673338#0.14 185882764 185882764.13 185882764.14 164418942#0 164418942#0.4 164418942#0.7 164418942#0.9 164418942#0.11 164418942#0.14 164418942#0.15 337673339 826314456#0 826314456#0.9 826314456#0.50 826314456#0.96 826314456#0.103 -6476313#2 -6476313#2.11 -6476313#2.29 -6476313#2.98 -6476313#2.99 -6476313#2.103 -6476313#2.107 -353690148#9 -353690148#9.7 -353690148#9.10 -353690148#9.12 -353690148#9.13 -353690148#9.38 -353690148#9.143 -353690148#6 -353690148#6.8 -353690148#6.122 893866060#8 893866060#8.7 893866060#8.65 893866060#8.89 6464138#0 6464138#0.7 6464138#0.53 6464138#0.92 22917111#17 22917111#17.3 22917111#17.5 22917111#17.7 22917111#17.122 293775902#4 293775902#4.6 293775902#4.49 293775902#4.88 293775902#8 293775902#8.6 293775902#8.49 293775902#8.91 -6512920#7 -6512920#7.4 -6512920#7.122 -6512920#7.124 6464138#12 6464138#12.51 6464138#14 -481291488#1 -481291488#0 -481291488#0.69 -481291488#0.82 -6447971#10 -6447971#10.11 -6447971#9 -6447971#8 -6447971#7 6463532#0 6463532#0.49 -6515975#7 -6515975#6 6507809#5 6507809#5.51 6507809#7 6507809#7.46 6507809#7.87 6516509#11 6516509#11.6 6516509#11.34 6516509#11.86 6516509#15 6516509#15.7 6516509#15.35 6516509#15.48 6516509#15.68 6516509#15.70 6516509#15.79 6516509#15.84 6516509#15.98 6516509#15.101 256996976#0 256996976#0.11 256996976#0.20 256996976#0.46 256996976#0.79 6487445#0 6487445#0.8 6415147#0 6415147#0.61 6415147#2 -6497081#1 -6497081#1.80 6523501#0 6523501#0.9 6523501#0.105 169917351#22 169917351#22.7 169917351#22.72 -6494970#2 -6494970#2.4 -6494970#2.100 6358721#0 6358721#0.9 6415147#4 -428247193#2 -428247193#2.56 -428247193#2.61 -428247193#2.96 -428247193#2.117 -428247193#2.121 -428247193#2.140 -428247193#2.154 -428247195 -428247195.5 -460421481#2 -460421481#2.8 -460421481#2.32 6497081#6 6497081#6.44 6497081#8 -6371720#2 -6371720#1 -6371720#1.81 460418987#2 460418987#3 460418987#3.91 460418978#0 460418978#0.8 460418978#0.76 795846818#2 795846818#2.7 795846818#2.14 795846818#2.102 22917670#10 22917670#10.5 22917670#10.34 481291010#3 481291010#3.6 481291010#3.100 369455641#1 369455641#1.28 369455641#1.78 512126021#0 512126021#0.7 512126021#0.31 512126021#0.66 157167355#0"/>
</vehicle>
<vehicle id = "veh15" type= "veh_passenger" depart="10815" >
<route edges =" -814326475#2 -814326475#2.9 -814326475#2.24 -814326475#2.41 -814326475#2.70 -814326475#2.91 -723013181#2 -723013181#2.9 -723013181#2.18 -723013181#2.38 -723013181#0 -332601014#3 -332601014#3.31 -332601014#3.36 -332601014#3.42 -428246436#1 -428246436#1.13 -428246436#1.22 -428246436#1.37 -808907363#3 -808907363#3.25 -808907363#3.35 -808907363#3.48 -808907363#3.53 -808907363#3.61 -6447455#5 -6447455#5.3 -6447455#5.8 -6447455#5.47 -6447455#1 -6447455#1.85 -6447455#1.90 -6461453#2 -6461453#2.11 -6461453#2.114 -6461453#2.116 -6461453#2.117 -6461453#2.120 912290518#3 912290518#3.6 912290518#3.14 912290518#3.34 912290518#3.39 912290518#3.70 912290518#6 912290518#6.8 912290518#10 912290518#10.51 912290518#10.92 912290518#10.93 912290518#10.95 912290518#10.98 -749622503#30 -749622503#30.5 -749622503#30.9 -749622503#30.79 -749622503#30.85 -749622503#30.120 -6462029#9 -6462029#9.9 -6462029#9.87 532416982#0 532416982#0.9 428231024#0 428231024#0.38 -759056694#16 -759056694#16.8 -759056694#16.23 -759056694#16.28 -759056694#16.42 -759056694#16.60 -759056694#16.85 -759056694#10 -759056694#10.10 -759056694#10.50 -759056694#10.73 -759056694#10.89 -6511397#7 -6511397#7.8 -6511397#7.39 -6511397#7.86 22927969#7 22927969#7.7 22927969#7.47 22927969#7.88 293753570#6 293753570#6.10 293753570#6.38 293753570#6.84 293753570#6.86 -759056694#2 -759056694#2.7 -759056694#2.25 -759056694#2.48 162631002#0 162631002#0.17 162631002#0.23 162631002#0.27 162631002#0.28 162631002#0.29 162631002#0.30 162631002#0.32 162631002#0.33 738637223#0 738637223#0.15 -165042063#1 -165042063#1.3 -165042063#1.13 -165042063#1.15 -759056491 -759056491.4 -759056491.8 -759056491.13 -759056491.17 -759056491.21 -759056491.26 -759056491.41 -759056491.81 -759056491.83 -759056491.88 -337673342#5 -337673342#5.3 -337673342#5.9 -337673342#5.13 -337673342#5.21 -337673342#5.35 -337673342#5.72 -607691082#1 6501701#2 6501701#2.50 6501701#2.60 -6475815#4 -6475815#3 -6475815#3.2 -6475815#3.17 -6475815#3.46 -428089348#3 -428089348#3.15 -428089348#3.21 -428089348#3.28 -353690151#5 -353690151#5.11 -353690151#5.12 -353690151#5.26 -353690151#5.83 -353690151#5.102 -353690151#2 -353690151#2.9 -353690151#2.22 -353690151#2.24 -353690151#2.39 -353690151#2.72 -353690151#2.92 -433500388#1 -433500388#1.11 -433500388#1.46 -433500388#1.73 -433500388#1.113 -433500388#1.115 -369877024#7 -369877024#7.3 -369877024#7.5 -369877024#7.8 -369877024#7.10 -369877024#7.16 -369877024#7.21 -369877024#7.102 -749622503#2 -749622503#2.9 -749622503#2.29 -749622503#2.64 -749622503#2.84 -6522514#4 -6522514#4.7 -6522514#4.36 -6522514#4.61 -6522514#4.66 -6522514#4.67 -6522514#4.73 -332223490#1 -332223490#1.19 -428088887#1 -428088887#1.12 -428088892 -428088886#1 -428088886#1.24 -428088886#1.35 -428088886#1.45 -65588108#1 -65588108#1.18 -65588108#1.53 -332223489#3 -332223489#3.4 -332223489#3.15 -332223489#3.17 -332223489#3.21 -401497115 -401497115.113 -401497115.170 -401497115.214 -428233435 -460425668 -460425668.5 -6457806#2 -6457806#2.21 -6457806#2.25 -6457806#2.30 6476922#0 6476922#0.13 6476922#0.24 6476922#0.37 6476922#0.60 6476922#0.67 6413383#0 6413383#0.1 6413383#0.3 6413383#0.6 6413383#0.18 6413383#0.26 6413383#0.47 428233432#0 428233432#0.11 428233432#0.22 332223487#0 332223487#0.16 332223487#0.62 332223487#0.98 893872038 893872038.9 893872038.14 893872038.97 893872038.123 893872038.129 893872038.134 347092915#0 347092915#0.8 347092915#0.32 347092915#0.44 347092915#0.89 347092915#0.182 347092915#6 347092915#6.6 347092915#6.44 347092915#6.87 6465130#7 6465130#7.8 6465130#7.44 6465130#7.70 6465130#7.74 22760519#3 22760519#3.9 22760519#3.21 22760519#3.33 22760519#3.91 965874292#0 965874292#0.8 965874292#0.88 965874292#3 965874292#3.1 965874292#3.48 965874292#3.59 965874292#3.86 965874292#7 965874292#7.8 965874292#7.41 965874292#10 965874292#10.35 965874292#12 965874292#12.8 965874292#12.69 158123767#0 158123767#0.10 158123767#0.11 158123767#0.50 158123767#0.74 158123767#0.86 158123767#0.115 158123767#0.122 158123767#0.134 158123767#0.139 158123767#0.166 795669781 795669781.52 795669781.56 460421481#1 460421481#1.61 460421481#1.85 256997441#0 256997441#0.11 256997441#0.18 256997441#0.62 14374224#4 14374224#4.44 14374224#4.54 14374224#4.84 14374224#4.122 -6414318#4 -157167355#0"/>
</vehicle>
<vehicle id = "veh16" type= "veh_passenger" depart="14420" >
<route edges =" -813722269#3 -813722269#3.7 -813722269#3.48 -813722269#3.84 -813722269#3.86 569505974#0 569505974#0.10 569505974#0.37 816616073#0 816616073#0.78 6343949#3 6343949#3.9 6343949#3.49 620762212#3 6430729#6 6430729#6.47 6430729#6.48 6430729#9 6430729#9.48 6430729#11 6430729#11.51 65588093#3 292812445#3 292812445#3.49 -6440348#14 6430729#15 6430729#15.48 6430729#17 6430729#17.51 -620762224#0 343521145#0 343521145#0.47 343521145#0.69 337739267#0 337818462 337818462.3 337818462.6 337739271#1 337739271#1.6 337739269#0 337739269#1 337739269#1.30 337739269#3 337739269#3.69 -396055523#4 -396055523#4.9 -396055523#4.15 -396055523#4.150 -92170540#0 -92170540#0.2 169730574#0 169730574#0.11 169730574#0.29 169730574#0.31 854082601 854082601.11 854082601.52 -6486416#2 -6486416#2.9 -6486416#2.116 805680044#1 805680044#1.7 805680044#1.49 805680044#1.91 -22917113#10 -22917113#10.7 -22917113#10.129 -22917113#10.132 -361784407#3 -361784407#3.43 -361784407#3.58 -361784407#3.88 -6360256#13 -6360256#13.8 -6360256#13.10 -6360256#13.19 -6360256#13.61 -6360256#13.76 -6360256#13.125 -6360256#9 -6360256#9.6 243349944#13 243349944#13.47 243349944#13.51 243349944#15 243349944#15.48 -185485132#9 6447445#7 6447445#7.46 -6494975#6 -6494975#6.81 256994205#3 428246847#0 428246847#0.8 428246847#0.22 6386110#0 6386110#0.16 6386110#0.25 6386110#0.55 -243349338#6 -243349338#6.14"/>
</vehicle>
<vehicle id = "veh17" type= "veh_passenger" depart="14420" >
<route edges =" -816616074#1 -816616074#1.10 -816616074#1.14 -816616074#1.119 428341734#4 428341734#4.8 428246439#0 428246439#0.14 428246438#0 428246438#0.8 428246440#0 428246440#0.62 800744529#0 800744529#0.7 800744529#0.52 800744529#0.89 825336588#0 825336588#0.7 96029553#0 96029553#0.9 96029553#0.15 96029553#0.59 -893866066#2 -893866066#2.7 -893866066#2.122 -353690150#2 -353690150#2.8 -353690150#2.144 293775902#0 293775902#0.7 293775902#0.52 293775902#0.90 -22917111#19 -22917111#19.8 -22917111#19.123 -22917111#19.125 -22917111#19.126 6464138#4 6464138#4.6 6464138#4.51 6464138#4.88 6440371#6 6440371#6.4 6440371#6.6 6440371#6.7 6440371#6.122 293775902#8 293775902#8.6 293775902#8.49 293775902#8.91 293775902#12 293775902#12.3 293775902#12.50 -6481166#11 -6481166#11.122 -6481166#11.125 6464138#14 -481291488#1 6464126#0 6464126#0.46 6464126#0.49 -460419011#1 -460419011#1.97 243339793#2 243339793#2.49 243339793#4 243339793#5 243339793#6 243339793#6.50 243339793#6.74 22917113#0 22917113#0.56 22917113#2 243349338#2 243349338#3 243349338#3.49 243349338#5"/>
</vehicle>
<vehicle id = "veh18" type= "veh_passenger" depart="14420" >
<route edges =" 817434294 817434294.10 817434294.36 817434294.44 817434294.63 817434294.119 6343949#0 6343949#0.7 6343949#0.86 -816616073#1 -816616073#1.7 -569505974#1 -569505974#1.6 -569505974#1.33 620762213#0 620762213#0.9 620762213#0.88 -800744530#5 -800744530#5.9 -800744530#5.19 -800744530#5.73 -800744530#5.84 -800744530#5.118 -800744528#1 -800744528#1.8 -800744528#1.16 -800744528#1.37 -800744528#1.72 -337673339 -337673337 185882764 185882764.13 185882764.14 185882765 185882765.16 185882765.26 185882765.30 185882765.31 -243338979#28 -243338979#28.13 -243338979#28.49 -243338979#28.142 -243338979#28.143 -243338979#25 -243338979#25.8 -243338979#25.64 -243338979#25.77 -243338979#25.120 -893866060#3 -893866060#3.9 -893866060#3.31 -893866060#3.90 -475161306#1 -475161306#1.9 -475161306#1.92 -475161306#1.120 353690155#0 353690155#0.10 353690155#0.51 353690155#0.58 353690155#0.90 353690157#0 353690157#0.5 353690157#0.19 353690157#0.47 353690157#0.72 353690157#0.87 893866056#0 893866056#0.8 893866056#0.64 893866056#0.88 -893866057 -893866057.8 -893866057.9 -893866057.122 460419029#0 460419029#0.7 460419029#0.51 460419029#0.53 460419029#0.89 22917111#11 22917111#11.7 22917111#11.31 22917111#11.49 22917111#11.50 22917111#11.120 22917111#11.121 353690154#4 353690154#4.6 353690154#4.49 353690154#4.54 353690154#4.87 353690154#8 353690154#8.7 353690154#8.42 353690154#8.50 353690154#8.92 6512920#4 6512920#4.4 6512920#4.9 6512920#4.120 6512920#4.122 6464138#12 6464138#12.51 -6481166#10 -6481166#10.6 -6481166#10.8 -6481166#10.120 -6481166#9 -6481166#9.8 486874837#1 486874837#2 486874837#2.47 460419011#0 460419011#0.101 460419011#1 460419011#1.11 6464126#3 6464126#3.49 6464126#5 460419028#4 460419028#5 460419028#5.67 460419028#5.79 460419028#5.105 460419024#0 460419024#0.9 460419024#0.19 460419024#0.34 460419024#0.53 460419024#0.102 -6425675 6380913#13 -6425689#3 -6425689#3.44 -460419007#0 -460419007#0.17 -460419007#0.46 -6515975#8 -6515975#7 -6467507#5 -6467507#5.50 -6467507#3 -6481166#5 6507809#3 6507809#4 -6515975#5 -6515975#5.48 169917351#7 169917351#7.49 169917351#9 169917351#9.48 169917351#9.87 169917351#12 169917351#12.9 169917351#12.42 169917351#12.90 169917351#16 169917351#16.9 169917351#16.77 169917351#19 169917351#19.6 169917351#19.71 6523501#3 6523501#3.6 6523501#5 6523501#5.201 926425191#0 926425191#0.5 6494970#7 481291012#5 481291012#5.49 6498476 6498476.121 6498476.127 6498476.134 926425193#1 926425193#1.12 926425193#1.24 926425193#1.34 926425191#3 926425191#4 926425191#4.20 185485117#1 -6501822#4 6463541#0 -6396312#1 -185485127#10 -6501822#2 -6507813#3 -6507813#3.42 -6507813#3.51 -6507813#0 6391682#2 6391682#2.12 6391682#2.24 6391682#2.34 6391682#2.45 -185485127#5 -185485127#5.56 -185485127#3 -185485127#3.10 -6494970#4 -6494970#4.172 -6494970#2 -6494970#2.4 -6494970#2.100 -460421482#6 -460421482#6.7 -460421482#6.25 -460421482#6.31 -460421482#6.72 -460421482#2 -460421482#2.6 -460421482#2.70 6449462#0 6449462#0.9 6449462#0.46 6449462#3 6449462#3.7 6449462#3.50 6449462#3.60 6449462#3.72 6449462#3.87 795669782#0 795669782#0.54 795669782#2 795669782#3 795846818#0 795846818#0.1 460418978#3 460418978#3.9 460418978#3.49 -6497081#10 -6497081#10.7 6371720#3 157167355#0"/>
</vehicle>
<vehicle id = "veh19" type= "veh_passenger" depart="14420" >
<route edges =" -814326475#2 -814326475#2.9 -814326475#2.24 -814326475#2.41 -814326475#2.70 -814326475#2.91 -6456052#5 -6456052#5.10 -6456052#5.36 -6456052#5.120 -6456052#1 -6456052#1.10 -6456052#1.62 -337673342#0 6343890#0 6343890#0.54 6343890#0.56 6343890#0.58 6343890#0.59 6343890#0.61 -6475815#6 -6475815#6.16 -6475815#4 -6475815#3 -6475815#3.2 -6475815#3.17 -6475815#3.46 -428089348#3 -428089348#3.15 -428089348#3.21 -428089348#3.28 -428341218#2 -428341218#2.3 -428341218#2.9 -65588069#1 -65588069#1.13 -428089351#1 -428089351#1.16 -428089352#1 -428089352#1.12 -428089350 -428089350.17 -428089350.43 -428227812#1 -428227812#1.9 -428227851#1 -428227851#1.5 -13726934#1 -13726934#1.5 -428227808 -428227847#1 -428227847#1.17 -749622503#15 -749622503#15.9 -749622503#15.31 -749622503#15.46 -749622503#15.51 -749622503#15.67 -749622503#15.85 -749622503#8 -749622503#8.7 -749622503#8.63 -749622503#8.83 -749622503#4 -749622503#4.84 -749622503#2 -749622503#2.9 -749622503#2.29 -749622503#2.64 -749622503#2.84 -369877039 -369877039.36 -369877039.55 -428088903#1 -428088903#1.15 428231560#0 428231560#0.10 338073582#0 338073582#0.20 -6502980#13 -6502980#13.10 -6502980#13.20 -6502980#13.36 -6502980#13.49 -6502980#13.55 -6502980#13.82 -263669002#2 -263669002#2.5 -263669002#2.46 -263669002#2.76 -263669002#2.86 465971498#0 465971498#0.9 465971498#0.59 465971498#0.83 465971498#0.86 465971498#0.88 465971498#0.90 465971498#0.91 6514305#0 6514305#0.3 6514305#0.4 6514305#0.9 6514305#0.14 6514305#0.34 6514305#0.54 -6456044#8 -6456044#8.8 -6456044#8.104 -6456044#5 -6456044#5.7 -6456044#5.86 6467490#0 6467490#0.7 6467490#0.49 6467490#0.78 -401497115 -401497115.113 -401497115.170 -401497115.214 -428233435 -460425668 -460425668.5 425646007#0 425646007#0.10 425646007#0.17 425646007#0.20 425646007#0.22 425646007#0.27 425646003#0 425646003#0.15 6465162#0 6465162#0.2 6465162#0.6 6465162#0.11 6465162#0.36 428233434 428233434.31 428233434.58 -739874554#2 -739874554#2.15 -739874554#2.40 -739874554#2.60 -739874554#2.67 622519661 622519661.8 347092914#0 347092914#0.10 347092914#0.14 347092914#0.24 347092914#0.54 347092914#0.75 347092914#0.87 893872038 893872038.9 893872038.14 893872038.97 893872038.123 893872038.129 893872038.134 347092915#0 347092915#0.8 347092915#0.32 347092915#0.44 347092915#0.89 347092915#0.182 347092915#6 347092915#6.6 347092915#6.44 347092915#6.87 -6465130#6 -6465130#6.8 -6465130#6.47 -6465130#6.84 -6465130#2 -6465130#2.8 -6465130#2.84 256996974#6 256996974#6.9 256996974#6.21 256996974#6.40 256996974#6.89 243338978#0 243338978#0.9 243338978#0.58 243338978#0.71 243338978#4 243338978#4.8 243338978#4.84 243338978#7 243338978#7.8 243338978#7.38 243338978#7.45 243338978#7.74 965874293#0 965874293#0.9 965874293#0.40 965874293#2 965874293#2.45 -749863323#6 -749863323#6.8 -749863323#6.39 -749863323#6.144 -749863323#6.187 -749863323#3 -749863323#3.10 -749863323#3.85 -749863323#3.126 792010743#0 792010743#0.26 792010743#0.59 792010743#2 792010743#2.11 792010743#2.16 6371699#0 6371699#0.9 6371699#2 6371699#2.33 6371699#2.42 6371699#2.187 844067889#4 844067889#4.8 844067889#4.67 844067889#4.77 844067889#4.80 -8044210#8 -8044210#8.8 -8044210#8.117 -8044210#5 -8044210#5.6 -8044210#5.33 -8044210#5.40 -8044210#5.46 -8044210#5.72 -8044210#5.73 -6388742#18 -6388742#18.5 -6388742#18.14 -6388742#18.22 -6388742#18.33 -6388742#18.42 -6388742#18.52 -6388742#18.64 -6388742#18.73 -6388742#15 -6388742#15.8 -6388742#15.46 -6388742#15.84 263712958#0 263712958#0.8 263712958#0.45 263712958#0.101 263712958#0.114 263712958#0.117 263712958#0.119 6445479#0 6445479#0.4 6445479#0.8 6445479#0.186 965874292#10 965874292#10.35 965874292#12 965874292#12.8 965874292#12.69 158123767#0 158123767#0.10 158123767#0.11 158123767#0.50 158123767#0.74 158123767#0.86 158123767#0.115 158123767#0.122 158123767#0.134 158123767#0.139 158123767#0.166 795669781 795669781.52 795669781.56 6497081#6 6497081#6.44 6414318#3 -157167355#0"/>
</vehicle>
<vehicle id = "veh20" type= "veh_passenger" depart="18025" >
<route edges =" -813722269#3 -813722269#3.7 -813722269#3.48 -813722269#3.84 -813722269#3.86 620762213#0 620762213#0.9 620762213#0.88 57883609#0 57883609#0.6 57883609#0.57 65588100#0 65588100#0.63 6343949#7 6343949#8 6343949#8.52 6343949#10 6343949#10.49 6343949#12 6343949#12.47 -525497324#3 -525497324#2 243349944#4 243349944#4.53 243349944#6 243349944#7 243349944#8 243349944#9 396055523#9 396055523#9.6 396055523#9.20 396055523#9.54 6447445#0 6447445#0.8 6447445#0.87 6447445#3 6447445#3.51 6447445#5 6447445#5.47 -185485132#8 -185485132#8.81 256994205#2 256994205#2.24 256994205#2.72 256994205#3 428246847#0 428246847#0.8 428246847#0.22 6386110#0 6386110#0.16 6386110#0.25 6386110#0.55 -243349338#6 -243349338#6.14"/>
</vehicle>
<vehicle id = "veh21" type= "veh_passenger" depart="18025" >
<route edges =" -816616074#1 -816616074#1.10 -816616074#1.14 -816616074#1.119 428341734#4 428341734#4.8 428246439#0 428246439#0.14 428246438#0 428246438#0.8 428246440#0 428246440#0.62 800744529#0 800744529#0.7 800744529#0.52 800744529#0.89 -349901821 -6476313#2 -6476313#2.11 -6476313#2.29 -6476313#2.98 -6476313#2.99 -6476313#2.103 -6476313#2.107 164418944#4 164418944#4.7 164418944#4.8 164418944#4.29 164418944#4.51 164418944#4.95 -353690150#2 -353690150#2.8 -353690150#2.144 293775902#0 293775902#0.7 293775902#0.52 293775902#0.90 293775902#4 293775902#4.6 293775902#4.49 293775902#4.88 293775902#8 293775902#8.6 293775902#8.49 293775902#8.91 6512920#8 6512920#8.4 6512920#8.74 6512920#8.89 6512920#8.101 6512920#8.139 525497323#0 525497323#0.50 525497323#2 525497323#2.81 40416132#0 40416132#0.19 40416132#1 40416132#1.90 256994206#0 256994206#0.8 256994206#0.43 256994206#0.60 460419028#0 460419028#0.11 460419028#0.49 460419028#0.79 460419028#0.95 243349338#0 243349338#0.18 243349338#1 -22917113#2 6464126#9 6464126#9.46 6464126#11 6464126#11.50 6494975#2 243349338#5"/>
</vehicle>
<vehicle id = "veh22" type= "veh_passenger" depart="18025" >
<route edges =" 817434294 817434294.10 817434294.36 817434294.44 817434294.63 817434294.119 816616072#4 816616072#4.7 816616072#4.62 816616072#4.121 816616072#8 816616072#8.6 816616072#8.121 158882495#0 158882495#0.6 -813722270#7 -813722270#7.11 -813722270#7.122 6430729#3 6430729#3.9 6430729#3.48 -620762212#3 6343949#6 -65588100#1 -65588100#1.65 -826314455#3 -826314455#3.64 -826314455#3.71 -826314455#3.76 -826314455#3.90 -826314455#3.118 -800744529#3 -800744529#3.9 -800744529#3.46 -800744529#3.91 -800744528#1 -800744528#1.8 -800744528#1.16 -800744528#1.37 -800744528#1.72 -337673339 -337673337 -337673338#1 -337673338#1.9 -395714916#1 -395714916#1.12 -568043367 -568043367.41 -568043367.79 -293775903#2 -293775903#2.10 -293775903#2.37 -293775903#2.89 -293775903#2.118 893866060#0 893866060#0.10 893866060#0.69 893866060#0.91 -243338979#20 -243338979#20.7 -243338979#20.121 -243338979#17 -243338979#17.7 -243338979#17.60 -243338979#17.109 -243338979#17.118 -243338979#17.120 486864438#2 486864438#2.6 486864438#2.88 -6476327#20 -6476327#20.8 -6476327#20.163 -6476327#20.182 -6476327#20.195 -486844942#3 -486844942#3.8 -486844942#3.80 -486844942#3.90 -243338979#3 -243338979#3.10 -243338979#3.38 -243338979#3.51 -243338979#3.65 6376376#4 6376376#4.5 6376376#4.86 -6476327#11 893868547#0 893868547#0.8 893868547#0.91 876005346#0 876005346#0.6 876005346#0.88 876005346#3 876005346#4 876005346#4.5 876005346#4.68 901474741#0 901474741#0.6 901474741#0.85 901474741#0.87 512168130#0 512168130#0.7 512168130#0.140 512168130#0.193 512168130#0.195 901419468#0 901419468#0.8 901419468#0.10 901419468#0.19 901419468#0.42 901419468#0.73 901419468#0.154 486874837#0 6481166#9 6481166#9.121 353690154#15 353690154#15.50 243339793#0 243339793#0.48 243339793#2 243339793#2.49 -801995082 -460419013#1 -460419013#1.44 -460419014 -460419014.67 -460419007#0 -460419007#0.17 -460419007#0.46 460419008#0 460419008#0.50 -6380913#11 -6380913#11.53 6463536#0 6463536#0.21 6463536#0.30 6463536#0.40 6463536#0.47 6463536#0.52 6463536#0.58 6463536#0.69 6463536#0.79 6463536#0.80 6516509#4 6516509#4.6 6516509#4.33 6516509#4.47 6516509#4.52 6516509#4.66 6516509#4.84 -6467507#9 -6467507#9.9 -6380913#5 -6380913#4 -6380913#3 -6380913#3.7 -6380913#3.66 -6380913#3.103 256996975#0 256996975#0.50 256996975#0.62 256996975#0.65 256996975#0.91 6461236#0 6461236#0.9 6461236#0.24 6461236#0.44 6461236#0.58 6461236#0.60 6384260#3 6384260#3.54 -6487445#4 -6487445#4.15 -6487445#4.55 6415147#0 6415147#0.61 6415147#2 6497081#2 6497081#2.38 6497081#2.47 6497081#2.53 6497081#2.60 6497081#2.67 6497081#2.70 6497081#2.74 6497081#2.81 6497081#2.120 6497081#6 6497081#6.44 6497081#8 -6371720#2 795669782#3 795846818#0 795846818#0.1 460418978#3 460418978#3.9 460418978#3.49 369455641#1 369455641#1.28 369455641#1.78 -512126023#7 -512126023#7.8 -512126023#7.19 -512126023#7.31 -512126023#7.44 -512126023#7.91 -512126023#7.107 -512126023#7.111 -512126023#7.245 6496652#0 6496652#0.8 6496652#2 6496652#2.75 6496652#4 6496652#4.7 -6367253#4 -6367253#4.7 -6367253#4.119 6485999#3 6485999#3.70 -6354794#0 -6467368#4 -6467368#3 -6467368#2 6351337#0 -6485999#1 -6485999#1.42 -185483738#5 -185483738#5.100 -185483738#3 -185483738#3.11 -185483738#3.19 -185483738#2 -185483738#2.93 -6371720#5 -6371720#5.41 157167355#0"/>
</vehicle>
<vehicle id = "veh23" type= "veh_passenger" depart="18025" >
<route edges =" -814326475#2 -814326475#2.9 -814326475#2.24 -814326475#2.41 -814326475#2.70 -814326475#2.91 -6456052#5 -6456052#5.10 -6456052#5.36 -6456052#5.120 -6456052#1 -6456052#1.10 -6456052#1.62 -607691082#1 -607691082#0 -6475815#3 -6475815#3.2 -6475815#3.17 -6475815#3.46 -428089348#3 -428089348#3.15 -428089348#3.21 -428089348#3.28 332223491#0 332223491#0.12 6438604#0 6438604#0.3 6438604#0.6 6438604#0.8 6438604#0.10 6438604#0.11 6438604#0.13 6438604#0.44 6438604#0.60 -22927969#14 -22927969#14.8 -22927969#14.47 -22927969#14.89 -293753570#5 -293753570#5.6 -293753570#5.37 -293753570#5.47 -293753570#5.60 -293753570#5.82 -293753570#2 -293753570#2.9 -293753570#2.83 -369877031#7 -369877031#7.10 -369877031#7.98 -369877031#7.191 -749622503#8 -749622503#8.7 -749622503#8.63 -749622503#8.83 -749622503#4 -749622503#4.84 369877024#3 369877024#3.6 369877024#3.87 369877024#3.91 369877024#3.98 369877024#3.100 369877024#3.103 369877024#3.104 -428088900#1 -428088900#1.10 -428088894#1 -428088894#1.25 -532166310#2 -532166310#2.3 -532166310#2.13 -369877039 -369877039.36 -369877039.55 -428088903#1 -428088903#1.15 428231560#0 428231560#0.10 338073582#0 338073582#0.20 -6502980#13 -6502980#13.10 -6502980#13.20 -6502980#13.36 -6502980#13.49 -6502980#13.55 -6502980#13.82 -6502980#7 -6502980#7.6 -6502980#7.48 -6502980#7.86 -6502980#3 -6502980#3.7 -6502980#3.69 -6502980#3.84 -169511256#4 -169511256#4.8 -169511256#4.43 -169511256#4.89 -6344598#3 -6344598#3.7 -6344598#3.19 -6344598#3.58 -6344598#3.85 -6344598#3.87 -621283341#3 -621283341#3.7 -621283341#3.91 -621283341#3.97 -621283341#3.101 621283344#0 621283344#0.5 621283344#0.17 621283344#0.28 621283344#0.68 621283344#0.82 621283344#4 621283344#4.5 621283344#4.44 428234723 347094712#0 347094712#0.21 -332223489#3 -332223489#3.4 -332223489#3.15 -332223489#3.17 -332223489#3.21 -401497115 -401497115.113 -401497115.170 -401497115.214 -428233435 -460425668 -460425668.5 425646007#0 425646007#0.10 425646007#0.17 425646007#0.20 425646007#0.22 425646007#0.27 -724644768 -724644768.35 6402586#0 6402586#0.1 6402586#0.4 6402586#0.6 6402586#0.12 6402586#0.35 6402586#0.59 6402586#4 6402586#4.72 6402586#4.75 6402586#4.77 6402586#4.80 208021560#0 208021560#0.2 208021560#0.5 208021560#0.8 208021560#0.11 208021560#0.30 208021560#0.39 208021560#0.44 208021560#0.106 208021560#0.125 208021560#0.133 208021560#0.136 347092914#0 347092914#0.10 347092914#0.14 347092914#0.24 347092914#0.54 347092914#0.75 347092914#0.87 332223488 332223488.25 332223488.48 332223488.65 332223488.68 332223488.88 347092907#0 347092907#0.3 347092907#0.13 347092907#0.19 347092907#0.26 347092907#0.31 347092907#0.38 347092907#0.40 347092907#0.45 347092907#0.51 332223494#0 332223494#0.18 332223494#0.35 332223494#0.144 332223494#0.171 6506833#15 6506833#15.8 6506833#15.10 6506833#15.35 6506833#18 6506833#18.45 6506833#20 6506833#20.8 6506833#20.47 6506833#20.85 263712957#13 263712957#13.7 263712957#13.54 263712957#13.186 -760645197#3 -760645197#3.6 -760645197#3.46 -760645197#3.84 760645196#0 760645196#0.8 760645196#0.188 -6388742#5 -6388742#5.6 -6388742#5.38 -6388742#2 -6388742#2.30 -6388742#2.38 965874292#7 965874292#7.8 965874292#7.41 965874292#10 965874292#10.35 965874292#12 965874292#12.8 965874292#12.69 158123767#0 158123767#0.10 158123767#0.11 158123767#0.50 158123767#0.74 158123767#0.86 158123767#0.115 158123767#0.122 158123767#0.134 158123767#0.139 158123767#0.166 795669782#0 795669782#0.54 -6414318#0 -6414318#0.76 -6414318#0.81 460418987#0 460418987#0.4 460418987#0.8 460418987#1 6371720#0 6371720#0.7 6371720#2 -6497081#8 6414318#3 -157167355#0"/>
</vehicle>
<vehicle id = "veh24" type= "veh_passenger" depart="21630" >
<route edges =" -813722269#3 -813722269#3.7 -813722269#3.48 -813722269#3.84 -813722269#3.86 569505974#0 569505974#0.10 569505974#0.37 816616073#0 816616073#0.78 813722270#0 813722270#0.7 813722270#0.42 813722270#0.74 813722270#0.75 813722270#0.121 6430729#3 6430729#3.9 6430729#3.48 620762212#4 620762212#4.122 171739207#2 171739207#2.46 171739207#4 171739207#4.40 171739207#4.43 171739207#4.47 171739207#4.50 171739207#4.52 171739207#4.54 171739207#4.77 171739207#4.80 171739207#4.82 171739207#4.85 171739207#4.87 171739207#4.90 171739207#4.113 8071898#0 8071898#0.8 8071898#0.10 8071898#0.26 8071898#0.40 6430729#11 6430729#11.51 -65588093#2 -6343949#9 -6343949#9.49 8071898#3 179551719 179551719.37 179551719.46 179551719.51 179551719.88 179551719.93 179551719.97 739843348#0 739843348#0.4 739843348#0.9 620762218#0 620762218#0.55 620762218#0.66 620762218#0.68 620762218#0.81 620762218#3 620762218#3.7 -525497324#2 243349944#4 243349944#4.53 243349944#6 243349944#7 460419011#4 337739269#1 337739269#1.30 -801995081#6 -801995081#6.9 243349944#9 243349944#10 243349944#10.7 243349944#10.84 -6360256#7 -6360256#7.5 6447445#3 6447445#3.51 22917113#5 243349944#15 243349944#15.48 185485132#10 243349945#9 243349945#9.50 6494975#9 6494975#9.108 6494975#9.119 6494975#10 6494975#10.11 6494975#10.19 805680044#10 336908262#0 336908262#0.48 -6472289#4 -805658294#5 -805658294#5.50 -243349942#1 -243349942#1.104 243349945#13 243349945#13.48 -6472289#2 -6472289#1 -6447445#11 -6447445#10 -6447445#10.48 -6494975#6 -6494975#6.81 256994205#3 428246847#0 428246847#0.8 428246847#0.22 6386110#0 6386110#0.16 6386110#0.25 6386110#0.55 -243349338#6 -243349338#6.14"/>
</vehicle>
<vehicle id = "veh25" type= "veh_passenger" depart="21630" >
<route edges =" -816616074#1 -816616074#1.10 -816616074#1.14 -816616074#1.119 428341734#4 428341734#4.8 428246439#0 428246439#0.14 428246438#0 428246438#0.8 428246440#0 428246440#0.62 800744529#0 800744529#0.7 800744529#0.52 800744529#0.89 -349901821 -6476313#2 -6476313#2.11 -6476313#2.29 -6476313#2.98 -6476313#2.99 -6476313#2.103 -6476313#2.107 164418944#4 164418944#4.7 164418944#4.8 164418944#4.29 164418944#4.51 164418944#4.95 32135548#0 32135548#0.6 32135548#0.48 32135548#0.53 32135548#0.64 32135548#0.89 32135548#0.90 32135548#5 32135548#5.7 32135548#5.49 32135548#5.88 32135548#9 32135548#9.7 32135548#9.47 32135548#9.63 32135548#9.78 525497323#0 525497323#0.50 525497323#2 525497323#2.81 -481291488#2 -481291488#1 6464126#0 6464126#0.46 6464126#0.49 6464126#3 6464126#3.49 6464126#5 -460419028#3 -460419028#2 -460419028#2.56 -460419028#2.72 -460419028#2.102 -460419028#2.140 396055524#0 396055524#0.9 396055524#0.30 396055524#0.54 396055524#0.65 -6360256#4 243349338#1 22917113#3 256994205#1 256994205#2 256994205#2.24 256994205#2.72 -6494975#4 -6494975#4.53 243349338#5"/>
</vehicle>
<vehicle id = "veh26" type= "veh_passenger" depart="21630" >
<route edges =" 817434294 817434294.10 817434294.36 817434294.44 817434294.63 817434294.119 816616072#4 816616072#4.7 816616072#4.62 816616072#4.121 6430729#0 6430729#0.7 6430729#0.86 -813722270#4 -813722270#4.8 -813722270#4.54 -813722270#4.55 -813722270#4.87 -813722270#4.122 -816616073#1 -816616073#1.7 -569505974#1 -569505974#1.6 -569505974#1.33 -569505976#2 -569505976#2.9 -569505976#2.88 -569505976#2.115 -569505976#2.119 -569505978#1 -569505978#1.10 -569505979 -569505979.32 -569505979.79 -395714916#1 -395714916#1.12 -568043367 -568043367.41 -568043367.79 893866065#0 893866065#0.10 893866065#0.66 893866065#0.92 893866065#3 893866065#3.6 893866065#3.48 893866065#3.88 893866065#7 893866065#7.7 893866065#7.48 893866065#7.90 -893866064#2 -893866064#2.7 -893866064#2.122 -893866059#2 -893866059#2.7 -893866059#2.120 -893866059#2.121 353690154#0 353690154#0.7 353690154#0.49 353690154#0.90 353690154#4 353690154#4.6 353690154#4.49 353690154#4.54 353690154#4.87 -6440371#2 -6440371#2.9 -6440371#2.11 -6440371#2.121 -6440371#2.122 460419029#9 460419029#9.7 460419029#9.45 486874837#0 486874837#1 486874837#2 486874837#2.47 460419013#0 460419013#0.51 481291014#0 481291014#0.53 353690153#0 353690153#0.8 353690153#0.25 353690153#0.87 486875123#0 486875123#0.56 486875123#0.88 481291012#0 481291012#0.24 481291012#0.32 -185485132#1 -185485132#1.196 -6514312#1 -6514312#1.8 -185485118#0 -185485118#0.55 -185485118#0.102 -185485118#0.141 -6467507#14 -6467507#14.73 -6467507#12 -6467507#12.14 -6467507#12.24 -6467507#12.91 6516509#8 6516509#8.7 6516509#8.85 6507809#10 6507809#10.8 6507809#10.91 6507809#13 6507809#13.9 6507809#13.77 -6452520#5 -6452520#5.4 -6452520#5.85 -169917351#18 -169917351#18.7 -169917351#18.75 -6360239#3 -6360239#3.6 -6360239#3.69 -6360239#3.102 256996976#3 256996976#3.7 256996976#3.76 6449462#0 6449462#0.9 6449462#0.46 6449462#3 6449462#3.7 6449462#3.50 6449462#3.60 6449462#3.72 6449462#3.87 795669782#0 795669782#0.54 795669782#2 6371720#2 6371720#3 157167355#0"/>
</vehicle>
<vehicle id = "veh27" type= "veh_passenger" depart="21630" >
<route edges =" -814326475#2 -814326475#2.9 -814326475#2.24 -814326475#2.41 -814326475#2.70 -814326475#2.91 -6456052#5 -6456052#5.10 -6456052#5.36 -6456052#5.120 -607690679#4 -607690679#4.9 -607690679#4.87 -607690679#4.94 -607690679#4.99 -797328240#3 -797328240#3.13 -797328240#3.26 -797328240#3.65 -797328240#3.93 -797328240#3.115 -337673342#5 -337673342#5.3 -337673342#5.9 -337673342#5.13 -337673342#5.21 -337673342#5.35 -337673342#5.72 -607691082#1 -607691082#0 -6475815#3 -6475815#3.2 -6475815#3.17 -6475815#3.46 -428089348#3 -428089348#3.15 -428089348#3.21 -428089348#3.28 -353690151#5 -353690151#5.11 -353690151#5.12 -353690151#5.26 -353690151#5.83 -353690151#5.102 -353690151#2 -353690151#2.9 -353690151#2.22 -353690151#2.24 -353690151#2.39 -353690151#2.72 -353690151#2.92 -433500388#1 -433500388#1.11 -433500388#1.46 -433500388#1.73 -433500388#1.113 -433500388#1.115 -428088900#1 -428088900#1.10 -428088894#1 -428088894#1.25 -428088883#1 -428088883#1.15 -428088897 -428088888 -737711647 -332223490#1 -332223490#1.19 -428088887#1 -428088887#1.12 -428088892 -428088886#1 -428088886#1.24 -428088886#1.35 -428088886#1.45 6463530#0 6463530#0.2 6463530#0.8 6463530#0.13 6463530#0.54 6463530#0.95 6463530#6 6463530#6.6 6463530#6.49 6463530#6.89 -6343878#8 -6343878#8.7 -6343878#8.85 -347094714#3 -347094714#3.9 -347094714#3.49 -347094714#3.92 6467490#0 6467490#0.7 6467490#0.49 6467490#0.78 -401497115 -401497115.113 -401497115.170 -401497115.214 -537677478#2 -537677478#2.10 -537677478#2.11 -537677478#2.28 -537677478#2.36 -6456046#3 -6456046#3.6 -6456046#3.36 -6456046#3.42 -6456046#3.49 -6456046#3.56 -6456046#3.62 -6456046#3.66 -6456046#3.71 -6456046#3.76 -6456046#3.92 -6456046#3.102 -6456046#3.109 -6456046#3.112 440890310 440890310.65 425646003#0 425646003#0.15 6465162#0 6465162#0.2 6465162#0.6 6465162#0.11 6465162#0.36 428233434 428233434.31 428233434.58 332223487#0 332223487#0.16 332223487#0.62 332223487#0.98 332223488 332223488.25 332223488.48 332223488.65 332223488.68 332223488.88 347092907#0 347092907#0.3 347092907#0.13 347092907#0.19 347092907#0.26 347092907#0.31 347092907#0.38 347092907#0.40 347092907#0.45 347092907#0.51 332223494#0 332223494#0.18 332223494#0.35 332223494#0.144 332223494#0.171 -6506833#14 -6506833#14.9 -6506833#14.14 -6506833#14.43 -6506833#14.79 -6506833#10 -6506833#10.7 -6506833#10.19 -6506833#10.42 -6506833#10.46 -6506833#10.83 -22917663#10 -22917663#10.10 -22917663#10.41 -22917663#10.64 -22917663#10.92 -6458014#2 -6458014#2.7 -6458014#2.83 256996974#0 256996974#0.8 256996974#0.88 256996974#3 256996974#3.6 256996974#3.29 256996974#3.56 256996974#3.86 256996974#6 256996974#6.9 256996974#6.21 256996974#6.40 256996974#6.89 256996974#11 256996974#11.6 256996974#11.33 256996974#11.65 6481166#0 6481166#0.6 6481166#0.73 6481166#0.104 -169917351#3 -169917351#3.10 -169917351#3.45 -169917351#3.90 -901477545#9 -901477545#9.8 -901477545#9.86 6440364#4 6440364#4.6 6440364#4.86 901474739#7 901474739#7.8 901474739#7.82 901474742#0 901474742#0.6 901474742#0.45 901474742#0.83 6467507#0 6467507#0.7 6467507#0.88 6467507#3 -6447971#5 -6447971#4 169917351#6 -6515975#3 -6515975#3.6 -6515975#3.44 -6515975#3.102 6445835#0 6445835#0.41 -22917665#1 -22917665#1.88 881403606#4 881403606#4.53 881403608#2 881403608#2.2 881403608#2.5 881403608#2.8 881403608#2.11 881403608#3 881403608#3.2 881403608#3.5 881403608#3.8 881403608#3.11 976099002#0 976099002#0.34 976099002#0.40 976099002#0.64 965874292#7 965874292#7.8 965874292#7.41 965874292#10 965874292#10.35 965874292#12 965874292#12.8 965874292#12.69 158123767#0 158123767#0.10 158123767#0.11 158123767#0.50 158123767#0.74 158123767#0.86 158123767#0.115 158123767#0.122 158123767#0.134 158123767#0.139 158123767#0.166 795669781 795669781.52 795669781.56 6497081#6 6497081#6.44 6414318#3 -157167355#0"/>
</vehicle>
</routes>
