<?xml version="1.0" encoding="UTF-8"?>
<routes xmlns:xsi="http: // www.w3.org/2001/XMLSchema-instance" xsi:noNamespaceSchemaLocation="http: // sumo.dlr.de/xsd/routes_file.xsd">
<vType id="veh_passenger" vClass="passenger"/>

<vehicle id = "veh0" type= "veh_passenger" depart="0" >
<route edges =" -813722269#3 -813722269#3.7 -813722269#3.48 -813722269#3.84 -813722269#3.86 620762213#0 620762213#0.9 620762213#0.88 620762212#0 620762212#0.8 620762212#0.52 6343949#6 6343949#7 6343949#8 6343949#8.52 6343949#10 6343949#10.49 6343949#12 6343949#12.47 -525497324#3 -525497324#2 243349944#4 243349944#4.53 243349944#6 243349944#7 -460419011#3 -460419011#2 6464126#3 6464126#3.49 6464126#5 -460419028#3 243349338#0 243349338#0.18 243349338#1 243349338#2 243349338#3 243349338#3.49 243349338#5"/>
</vehicle>
<vehicle id = "veh1" type= "veh_passenger" depart="0" >
<route edges =" -6457203#16 -6457203#16.59 975126260#0 975126260#0.49 -6505136#16 6368504#5 6368504#5.48 6368504#7 6368504#7.50 -6513783#8 -6513783#7 37657905#3 37657905#3.48 37657905#5 37657905#5.10 37657905#5.46 37657905#7 37657905#7.49 476409329 -6383185#5 6384373#1 6384373#2 6384373#2.45 6384373#2.56 -65588097#1 -65588097#1.119 337818330 6463035#0 6463035#0.14 6463035#0.38 6463035#3 -6495801#0 -185485132#12 -185485132#12.125 -185485132#11 -185485132#11.16 243349945#9 243349945#9.50 -6494975#8 -6494975#7 -6494975#6 -6494975#6.81 256994205#3 428246847#0 428246847#0.8 428246847#0.22 6386110#0 6386110#0.16 6386110#0.25 6386110#0.55 -243349338#6 -243349338#6.14"/>
</vehicle>
<vehicle id = "veh2" type= "veh_passenger" depart="0" >
<route edges =" -6522868 -6403883#7 -6403883#6 -6403883#5 -6403883#4 -6403883#3 -6403883#2 158882505#7 158882505#8 8111709#0 8111709#0.47 8111709#2 8111709#2.49 8111709#4 8111709#4.49 -6513783#5 6384359#8 6384359#9 6384359#9.26 -6381494#3 -6381494#3.43 6463017#6 6463017#6.48 -6386837#0 337739268 337739268.124 337739267#0 337818462 337818462.3 337818462.6 337739271#1 337739271#1.6 337739269#0 -460419011#4 243349944#8 -801995081#5 -801995081#5.197 -801995081#5.209 -801995081#2 -801995081#2.109 -801995081#0 243339793#4 243339793#5 243339793#6 243339793#6.50 243339793#6.74 -22917112 -185485118#1 6514312#0 6514312#0.70 -6523501#6 -6523501#6.6 185485127#1 -6494970#4 -6494970#4.172 -6494970#2 -6494970#2.4 -6494970#2.100 6358721#0 6358721#0.9 6415147#4 6415147#5 6415147#6 6351349#2 6351349#3 6351349#3.107 6351349#5 -185483733 -6414318#4 -157167355#0"/>
</vehicle>
<vehicle id = "veh3" type= "veh_passenger" depart="0" >
<route edges =" 817434294 817434294.10 817434294.36 817434294.44 817434294.63 817434294.119 6343949#0 6343949#0.7 6343949#0.86 6343949#3 6343949#3.9 6343949#3.49 620762212#3 6430729#6 6430729#6.47 6430729#6.48 6430729#9 6430729#9.48 6430729#11 6430729#11.51 6430729#13 6430729#13.48 6430729#15 6430729#15.48 6430729#17 6430729#17.51 -620762224#0 -66558981#7 -66558981#7.65 -66558981#7.83 -66558981#7.105 -66558981#7.123 -66558981#2 -66558981#2.131 -66558981#2.234 525497323#2 525497323#2.81 -481291488#2 -481291488#1 -481291488#0 -481291488#0.69 -481291488#0.82 -6447971#10 -6447971#10.11 -6447971#9 -6447971#8 -6447971#7 -6447971#6 -6447971#5 -6447971#4 169917351#6 169917351#7 169917351#7.49 169917351#9 169917351#9.48 169917351#9.87 169917351#12 169917351#12.9 169917351#12.42 169917351#12.90 -6360239#3 -6360239#3.6 -6360239#3.69 -6360239#3.102 6487445#0 6487445#0.8 6415147#0 6415147#0.61 6449462#3 6449462#3.7 6449462#3.50 6449462#3.60 6449462#3.72 6449462#3.87 795669782#0 795669782#0.54 795669782#2 6371720#2 6371720#3 157167355#0"/>
</vehicle>
<vehicle id = "veh4" type= "veh_passenger" depart="3605" >
<route edges =" -816616074#1 -816616074#1.10 -816616074#1.14 -816616074#1.119 428341734#4 428341734#4.8 428246439#0 428246439#0.14 -569505978#1 -569505978#1.10 -569505979 -569505979.32 -569505979.79 337673338#0 337673338#0.14 337673337 337673339 826314456#0 826314456#0.9 826314456#0.50 826314456#0.96 826314456#0.103 349901821 825336588#0 825336588#0.7 96029553#0 96029553#0.9 96029553#0.15 96029553#0.59 8071900#0 8071900#0.7 8071900#0.18 8071900#0.88 8071900#4 8071900#4.7 8071900#4.49 8071900#4.88 8071900#8 8071900#8.6 8071900#8.7 8071900#8.49 8071900#8.53 -525497324#0 525497323#0 525497323#0.50 525497323#2 525497323#2.81 40416132#0 40416132#0.19 40416132#1 40416132#1.90 256994206#0 256994206#0.8 256994206#0.43 256994206#0.60 460419028#0 460419028#0.11 460419028#0.49 460419028#0.79 460419028#0.95 243349338#0 243349338#0.18 243349338#1 243349338#2 243349338#3 243349338#3.49 243349338#5"/>
</vehicle>
<vehicle id = "veh5" type= "veh_passenger" depart="3605" >
<route edges =" -6457203#16 -6457203#16.59 975126260#0 975126260#0.49 975126260#2 975126260#2.48 603522174#0 6368504#7 6368504#7.50 -6513783#8 -170683231#20 -170683231#20.51 6381494#12 6381494#12.56 6368504#12 6368504#12.37 6368504#12.47 -336904472#5 -336904472#5.13 -336904472#4 -336904472#4.96 37657905#7 37657905#7.49 -791722143#1 -170683231#11 -170683231#11.43 -170683231#9 -170683231#9.43 -170683231#7 65588097#6 65588097#7 65588097#7.42 65588097#9 65588097#10 65588097#10.40 6522860#1 6522860#2 6522860#2.23 6522860#2.40 6522860#2.46 6522860#2.55 6522860#2.62 6522860#2.67 6522860#2.76 6522860#2.89 6522860#11 6522860#11.100 6522860#11.110 6522860#14 6522860#14.12 6522860#14.34 6522860#14.81 6522860#14.110 6522860#14.119 -6349125#3 -6349125#3.8 -6349125#3.20 -6345330#5 -6345330#5.16 -6345330#5.40 -170683288#3 -170683288#3.39 -170683288#3.69 -170683288#3.76 -170683288#1 -170683288#1.6 -170683288#1.13 170683231#0 170683231#0.34 -6356667#1 -6356667#1.147 -6356667#1.181 428315591#2 428315591#2.6 428315591#2.15 428315591#2.25 428315591#2.59 428315591#2.76 -912599281#1 -912599281#1.10 -912599281#1.25 -912599281#1.45 -6349021#2 -6349021#2.11 6464371#0 6464371#0.8 6464371#0.32 40416130#0 -6349133#2 -6349133#2.120 -6349133#1 -6463035#9 -6463035#9.48 -6463035#7 -6463035#6 -6463035#6.50 -6463035#6.52 -6495801#0 -185485132#12 -185485132#12.125 805658294#0 805658294#0.38 805658294#0.52 -6494975#9 -6494975#9.13 -6494975#9.24 -6494975#8 -6494975#7 -6447445#8 -6447445#8.50 -185485132#8 -185485132#8.81 256994205#2 256994205#2.24 256994205#2.72 256994205#3 428246847#0 428246847#0.8 428246847#0.22 6386110#0 6386110#0.16 6386110#0.25 6386110#0.55 -243349338#6 -243349338#6.14"/>
</vehicle>
<vehicle id = "veh6" type= "veh_passenger" depart="3605" >
<route edges =" -6522868 6403883#8 -6428544#15 -6428544#15.8 -6462093 -6462093.45 -6462093.54 -6462093.65 -6462093.80 -6462093.95 -6462093.117 -6462093.128 -6462093.141 -6462093.175 -6323849#1 -6323849#1.28 -263668130#2 -263668130#2.17 -263668130#2.32 -263668130#2.43 -263668130#2.52 -263668130#2.58 -263668130#2.67 -263668130#2.74 -263668130#2.85 -263668130#0 337099385#1 -6428544#6 -6428544#5 -8071381#1 -8071381#1.135 462701468 462701468.31 462701468.57 -6400858#1 -6400858#1.92 -6400858#1.135 -6400858#1.139 -6400858#1.143 -6400858#1.147 -8071380#1 -8071380#1.2 -8071380#1.5 -8071380#1.8 -8071380#1.11 -8071380#1.45 -8071380#1.57 -8071380#1.61 -6470834 -6470834.4 -6470834.8 -6470834.12 -428098986 -428098986.2 -428098986.6 -428314467 -428314467.16 -428314460 -428098985#1 -428098985#1.1 -6346308#11 -6346308#11.43 -6346308#11.48 -6346308#9 -6346308#9.33 -6346308#9.41 -6346308#6 -6346308#5 -6346308#5.48 -749754758#9 -749754758#9.120 -749754758#7 -749754758#7.3 -749754758#7.122 -749754758#4 -749754758#4.4 -749754758#4.120 -749754758#1 -749754758#1.7 -749754758#1.102 -6479778#2 -6479778#1 -6479778#1.16 -621088608#1 -621088608#1.7 -621088608#1.12 393047811 6474762#0 6474762#0.47 6474762#2 6474762#2.29 6474762#2.32 6474762#2.34 6358498#0 6358498#0.53 -749754754#1 -749754754#1.14 -749754754#1.29 6374789#3 6374789#3.12 6374789#3.121 6384350#12 6384350#12.6 6384350#12.22 6384350#12.25 6384350#12.26 6384350#12.30 6384350#12.34 6384350#12.43 6384350#12.47 6384350#12.53 6384350#12.55 6384350#12.58 6384350#12.61 6384350#12.70 -6358524#2 -6358524#2.6 -6358524#2.122 548654006#0 548654006#0.8 548654006#0.16 548654006#0.24 548654006#0.54 6384942#0 6384942#0.11 752851600#0 752851600#0.51 752851600#0.59 752851600#0.98 752851600#0.99 752851600#0.101 171739214#3 171739214#3.6 171739214#3.44 171739214#3.60 171739214#3.83 428098981 428098987#0 428098987#0.22 428098987#0.51 428098984#0 428098984#0.14 -621283351#2 -621283351#2.12 -621283351#2.21 158882505#0 158882505#0.42 -6368665#1 -6368665#1.49 -6368665#1.91 -6368665#1.93 171739214#11 171739214#12 171739214#13 6411908#2 6411908#2.39 158882505#4 158882505#4.31 158882505#6 -6403883#1 171739214#20 171739214#21 171739214#21.8 171739214#21.28 171739214#21.32 6457203#1 6457203#1.8 6457203#1.16 6457203#1.38 6457203#1.55 8111709#0 8111709#0.47 8111709#2 8111709#2.49 8111709#4 8111709#4.49 757399066#0 757399066#0.51 757399066#0.87 -6381494#6 -6381494#6.57 -6381494#6.77 -6381494#6.94 -6381494#3 -6381494#3.43 -6381494#1 -6381494#0 292812445#9 292812445#9.49 337739268 337739268.124 337739267#0 337818462 337818462.3 337818462.6 337739271#1 337739271#1.6 337739269#0 -460419011#4 243349944#8 243349944#9 396055523#9 396055523#9.6 396055523#9.20 396055523#9.54 6447445#0 6447445#0.8 6447445#0.87 -6360256#5 -396055524#1 -396055524#1.29 -396055524#1.40 -396055524#1.64 -396055524#1.86 -256994206#2 -256994206#2.11 -256994206#2.27 -256994206#2.62 -801995081#2 -801995081#2.109 -6464126#4 -6464126#4.47 -460419011#1 -460419011#1.97 -460419011#0 -460419011#0.11 460419013#0 460419013#0.51 -6380913#14 -6380913#13 6425675 -460419024#4 -460419024#4.23 -460419024#4.72 -460419024#4.91 -460419024#4.105 -460419024#4.115 353690153#0 353690153#0.8 353690153#0.25 353690153#0.87 6360256#0 6360256#0.104 243339793#6 243339793#6.50 243339793#6.74 -22917112 481291012#0 481291012#0.24 481291012#0.32 -185485132#1 -185485132#1.196 -6523501#6 -6523501#6.6 -6523501#4 -6523501#4.175 -6523501#2 -6523501#2.5 -6523501#2.101 6497081#0 6497081#0.8 6415147#3 6415147#4 6415147#5 6415147#6 6415147#7 6354836#1 6354836#1.40 -642753173 642753174 -6384264 -295783215#1 14374224#0 14374224#0.36 14374224#0.80 14374224#0.83 -256997441#2 -256997441#2.27 -256997441#2.71 -256997441#2.77 -428247194#1 -428247194#1.9 -428247194#1.28 -157167355#3 -157167355#3.5 -157167355#3.43 -157167355#0"/>
</vehicle>
<vehicle id = "veh7" type= "veh_passenger" depart="3605" >
<route edges =" -813722269#3 -813722269#3.7 -813722269#3.48 -813722269#3.84 -813722269#3.86 569505974#0 569505974#0.10 569505974#0.37 816616073#0 816616073#0.78 6343949#3 6343949#3.9 6343949#3.49 6343949#6 65588100#2 65588100#2.20 65588100#2.57 6430729#9 6430729#9.48 6430729#11 6430729#11.51 -65588093#2 6343949#10 6343949#10.49 -6440348#10 -6440348#10.4 -6440348#10.6 -6440348#10.48 -6440348#10.83 620762218#3 620762218#3.7 -525497324#2 243349944#4 243349944#4.53 -66558981#2 -66558981#2.131 -66558981#2.234 -525497323#1 -525497323#1.48 -179552126 -179552126.19 -179552126.34 -179552126.50 -179552126.90 -32135548#8 -32135548#8.10 -32135548#8.48 -32135548#8.91 -22917111#22 -22917111#22.9 -22917111#22.144 -22917111#19 -22917111#19.8 -22917111#19.123 -22917111#19.125 -22917111#19.126 -22917111#16 -22917111#16.4 -22917111#16.5 -22917111#16.7 -22917111#16.120 -22917111#16.122 -353690154#3 -353690154#3.8 -353690154#3.49 -353690154#3.91 -893866057 -893866057.8 -893866057.9 -893866057.122 460419029#0 460419029#0.7 460419029#0.51 460419029#0.53 460419029#0.89 -22917111#10 -22917111#10.9 -22917111#10.32 -22917111#10.71 -22917111#10.74 -22917111#10.76 -22917111#10.93 -22917111#10.155 -22917111#10.196 -22917111#2 -22917111#2.10 -22917111#2.197 876005346#3 -22917110#5 -22917110#5.7 -22917110#5.84 901474739#3 901474739#3.6 901474739#3.41 901474739#3.71 -6440364#6 -6440364#6.6 -6440364#6.86 901477545#7 901477545#7.5 901477545#7.83 -901474740#3 -901474740#3.7 -901474740#3.53 -901474740#3.61 -901474740#3.102 256996974#11 256996974#11.6 256996974#11.33 256996974#11.65 256996972 256996972.16 256996972.70 256996978#0 256996978#0.7 256996978#0.68 256996973#0 256996973#0.33 256996973#0.45 256996973#0.49 256996975#0 256996975#0.50 256996975#0.62 256996975#0.65 256996975#0.91 6461236#0 6461236#0.9 6461236#0.24 6461236#0.44 6461236#0.58 6461236#0.60 6384260#3 6384260#3.54 -6487445#4 -6487445#4.15 -6487445#4.55 6415147#0 6415147#0.61 6449462#3 6449462#3.7 6449462#3.50 6449462#3.60 6449462#3.72 6449462#3.87 795669782#0 795669782#0.54 6414318#1 6414318#1.86 6497081#8 6371720#3 157167355#0"/>
</vehicle>
<vehicle id = "veh8" type= "veh_passenger" depart="7210" >
<route edges =" -813722269#3 -813722269#3.7 -813722269#3.48 -813722269#3.84 -813722269#3.86 620762213#0 620762213#0.9 620762213#0.88 57883609#0 57883609#0.6 57883609#0.57 -826314455#3 -826314455#3.64 -826314455#3.71 -826314455#3.76 -826314455#3.90 -826314455#3.118 825336588#0 825336588#0.7 349901822#2 349901822#2.21 -620762214 179551719 179551719.37 179551719.46 179551719.51 179551719.88 179551719.93 179551719.97 739843348#0 739843348#0.4 739843348#0.9 620762218#0 620762218#0.55 620762218#0.66 620762218#0.68 620762218#0.81 620762218#3 620762218#3.7 525497324#3 525497324#4 525497324#4.15 525497324#4.73 525497324#4.88 6430729#17 6430729#17.51 -620762224#0 -66558981#7 -66558981#7.65 -66558981#7.83 -66558981#7.105 -66558981#7.123 -66558981#2 -66558981#2.131 -66558981#2.234 -525497323#1 -525497323#1.48 -6512920#11 -6512920#11.12 -6512920#11.49 -6512920#11.62 -6512920#11.76 -6512920#11.147 293775902#12 293775902#12.3 293775902#12.50 -6481166#11 -6481166#11.122 -6481166#11.125 6464138#14 -481291488#1 6464126#0 6464126#0.46 6464126#0.49 6464126#3 6464126#3.49 6464126#5 6464126#6 6464126#7 6464126#7.50 6464126#9 6464126#9.46 185485132#4 243349338#3 243349338#3.49 243349338#5"/>
</vehicle>
<vehicle id = "veh9" type= "veh_passenger" depart="7210" >
<route edges =" -6457203#16 -6457203#16.59 -6457203#15 -6457203#15.22 -6457203#14 -6457203#14.67 6368504#3 6368504#3.46 6368504#5 6368504#5.48 6368504#7 6368504#7.50 -6513783#8 -6513783#7 37657905#3 37657905#3.48 6381494#9 6381494#9.36 6381494#9.62 -170683231#18 -170683231#18.37 -170683231#18.49 -336904472#4 -336904472#4.96 37657905#7 37657905#7.49 476409329 61151096 6460085#5 6460085#5.26 6460085#6 6460085#6.62 476409332#4 -65588097#6 -170683231#6 -170683231#6.43 -170683231#6.51 -170683231#3 -170683231#2 6356667#2 476409332#8 476409332#9 476409332#9.68 -6349126#4 -6349126#4.29 -6349126#4.47 -6349126#4.62 -6349126#4.68 -6349126#4.76 -6349126#4.79 -6349126#4.104 -854081622#0 -854081622#0.13 -19000995#2 -19000995#2.7 -19000995#2.29 6414237#0 6414237#0.11 6414237#1 6414237#2 6414237#2.7 6414237#2.43 6414237#2.81 -243352868#3 -243352868#3.6 -243352868#1 -243352868#1.19 -170683665#11 -170683665#11.54 -6353177#4 -6353177#3 -6353177#3.7 -6353177#3.98 -6353177#3.134 336908262#4 336908262#4.6 -359671039#10 -359671039#10.86 -359671039#8 -359671039#8.55 243349945#18 243349945#19 352434874#3 352434874#4 352434874#4.20 352434874#4.33 352434874#4.43 352434874#4.55 352434874#4.68 352434874#4.74 6474773#1 6474773#1.19 6474773#1.72 6474773#1.81 -263665040#4 -263665040#4.9 -263665040#4.18 -263665040#4.27 -263665040#4.36 -263665040#4.45 -263665040#4.54 -263665040#4.63 -263665040#4.72 -263665040#4.82 -263665040#3 -263665040#3.11 -263665040#3.21 -263665040#3.100 -263665040#2 -263665040#2.22 -243349944#28 -352434874#1 -6447445#16 -532125609#0 -438895608#1 359671039#4 359671039#4.117 -6447445#14 -6447445#13 -6447445#13.40 -6447445#11 -22760521#2 -22760521#2.81 -22760521#2.121 428246847#0 428246847#0.8 428246847#0.22 6386110#0 6386110#0.16 6386110#0.25 6386110#0.55 -243349338#6 -243349338#6.14"/>
</vehicle>
<vehicle id = "veh10" type= "veh_passenger" depart="7210" >
<route edges =" -6522868 6403883#8 -6428544#15 -6428544#15.8 -6462093 -6462093.45 -6462093.54 -6462093.65 -6462093.80 -6462093.95 -6462093.117 -6462093.128 -6462093.141 -6462093.175 6323849#2 -160552467#11 -160552467#11.13 -160552467#11.23 -160552467#11.33 -160552467#11.44 -160552467#11.54 -160552467#11.62 -160552467#11.70 -160552467#11.80 -160552467#11.88 -160552467#11.115 -160552467#11.127 -160552467#10 -160552467#10.17 -160552467#10.28 -160552467#10.38 -160552467#9 -158882517#3 -6411908#3 158882505#4 158882505#4.31 -160552467#7 -160552467#7.43 -160552467#7.73 -160552467#7.78 171739214#15 171739214#15.31 171739214#15.57 171739214#20 171739214#21 171739214#21.8 171739214#21.28 171739214#21.32 -6457203#0 6384359#0 6384359#0.22 6384359#0.45 6384359#0.50 6384359#4 6384359#4.13 6384359#4.31 6384359#4.51 -6464042#2 -6464042#2.80 -6464042#1 -6464042#1.52 292812445#5 292812445#5.45 6513783#0 6513783#1 6513783#1.64 6513783#2 6513783#2.8 6513783#2.46 6513783#2.65 6513783#2.68 6384359#8 6384359#9 6384359#9.26 -6381494#3 -6381494#3.43 6463017#6 6463017#6.48 6386837#1 6386837#2 6384359#12 6384359#12.14 6384359#12.24 6384359#12.93 -6444677 -292812445#12 -292812445#12.49 337739268 337739268.124 337739267#0 337739267#1 -481291488#10 -481291488#10.44 -481291488#10.61 -481291488#10.85 -481291488#10.132 -481291488#10.142 243349944#7 -460419011#3 40416132#1 40416132#1.90 -801995081#2 -801995081#2.109 -6464126#4 -6464126#4.47 -460419011#1 -460419011#1.97 243339793#2 243339793#2.49 243339793#4 460419028#5 460419028#5.67 460419028#5.79 460419028#5.105 353690153#0 353690153#0.8 353690153#0.25 353690153#0.87 486875123#0 486875123#0.56 486875123#0.88 481291012#0 481291012#0.24 481291012#0.32 185485132#2 185485132#2.104 243339793#11 243339793#11.47 243339793#13 243339793#13.49 6386110#5 6386110#5.80 428246845 8071924#0 8071924#0.13 8071924#1 8071924#1.18 8071924#1.30 -6472293#5 -6472293#5.39 185485117#1 -6501822#4 6463541#0 -6396312#1 -185485127#10 -6501822#2 -6507813#3 -6507813#3.42 -6507813#3.51 6472293#2 -185485127#6 -185485127#5 -185485127#5.56 336908264#2 336908264#2.29 -169917351#27 -169917351#27.11 -169917351#27.76 -6494970#2 -6494970#2.4 -6494970#2.100 6358721#0 6358721#0.9 6415147#4 428247193#3 428247193#3.27 486632638#0 486632638#0.14 486632638#0.27 256996977#0 256996977#0.9 256996977#0.40 6489809#0 6489809#0.40 6489809#2 -295783215#1 14374224#0 14374224#0.36 14374224#0.80 14374224#0.83 256997441#3 256997441#3.6 256997441#3.53 6351349#5 -185483733 -6414318#4 -157167355#0"/>
</vehicle>
<vehicle id = "veh11" type= "veh_passenger" depart="7210" >
<route edges =" 817434294 817434294.10 817434294.36 817434294.44 817434294.63 817434294.119 816616072#4 816616072#4.7 816616072#4.62 816616072#4.121 816616072#8 816616072#8.6 816616072#8.121 158882495#0 158882495#0.6 171739207#0 171739207#0.49 -620762212#5 -620762212#5.7 -620762212#3 6343949#6 6343949#7 6343949#8 6343949#8.52 65588093#2 6430729#13 6430729#13.48 6430729#15 6430729#15.48 -525497324#7 -525497324#7.39 -525497324#7.54 -525497324#7.112 -6343949#13 -6343949#13.50 -6440348#10 -6440348#10.4 -6440348#10.6 -6440348#10.48 -6440348#10.83 620762218#3 620762218#3.7 -525497324#2 -525497324#1 -525497324#0 -179552126 -179552126.19 -179552126.34 -179552126.50 -179552126.90 -6440371#11 -6440371#11.12 -6440371#11.144 293775902#8 293775902#8.6 293775902#8.49 293775902#8.91 -6512920#7 -6512920#7.4 -6512920#7.122 -6512920#7.124 -6512920#5 -6512920#5.6 -6512920#5.9 -6512920#5.119 -6512920#5.124 -6512920#3 -6512920#3.8 -6512920#3.9 -6512920#3.19 -6512920#3.59 -6512920#3.92 486874837#0 486874837#1 486874837#2 486874837#2.47 -460419014 -460419014.67 6425689#2 6425689#2.48 -6380913#13 -6380913#12 460419008#2 460419008#2.37 460419008#2.41 460419008#2.47 460419008#2.65 6516509#0 6516509#0.7 6516509#0.30 6516509#0.46 6516509#0.66 6516509#0.90 6516509#0.105 6516509#0.109 6516509#4 6516509#4.6 6516509#4.33 6516509#4.47 6516509#4.52 6516509#4.66 6516509#4.84 6516509#8 6516509#8.7 6516509#8.85 6507809#10 6507809#10.8 6507809#10.91 -6360239#7 -6360239#7.6 -6360239#7.47 -6360239#7.86 -6360239#3 -6360239#3.6 -6360239#3.69 -6360239#3.102 6487445#0 6487445#0.8 6415147#0 6415147#0.61 6449462#3 6449462#3.7 6449462#3.50 6449462#3.60 6449462#3.72 6449462#3.87 795669782#0 795669782#0.54 795669782#2 6371720#2 6497081#9 6497081#9.126 369455641#1 369455641#1.28 369455641#1.78 512126021#0 512126021#0.7 512126021#0.31 512126021#0.66 157167355#0"/>
</vehicle>
<vehicle id = "veh12" type= "veh_passenger" depart="10815" >
<route edges =" -813722269#3 -813722269#3.7 -813722269#3.48 -813722269#3.84 -813722269#3.86 620762213#0 620762213#0.9 620762213#0.88 57883609#0 57883609#0.6 57883609#0.57 65588100#0 65588100#0.63 65588100#2 65588100#2.20 65588100#2.57 65588100#5 65588100#5.122 171739207#4 171739207#4.40 171739207#4.43 171739207#4.47 171739207#4.50 171739207#4.52 171739207#4.54 171739207#4.77 171739207#4.80 171739207#4.82 171739207#4.85 171739207#4.87 171739207#4.90 171739207#4.113 8071898#0 8071898#0.8 8071898#0.10 8071898#0.26 8071898#0.40 8071898#2 6343949#8 6343949#8.52 6343949#10 6343949#10.49 6343949#12 6343949#12.47 525497324#4 525497324#4.15 525497324#4.73 525497324#4.88 6430729#17 6430729#17.51 620762224#1 292812445#9 292812445#9.49 337739268 337739268.124 337739267#0 337818462 337818462.3 337818462.6 337739271#1 337739271#1.6 337739269#0 337739269#1 337739269#1.30 337739269#3 337739269#3.69 -396055523#4 -396055523#4.9 -396055523#4.15 -396055523#4.150 -92170540#0 -92170540#0.2 169730574#0 169730574#0.11 169730574#0.29 169730574#0.31 854082601 854082601.11 854082601.52 460421484#0 460421484#0.12 6463035#0 6463035#0.14 6463035#0.38 -6448612#1 -6448612#1.133 -22917113#10 -22917113#10.7 -22917113#10.129 -22917113#10.132 -22917113#7 -22917113#7.10 -22917113#7.19 243349945#6 243349945#6.48 243349945#6.88 243349945#9 243349945#9.50 243349945#11 243349945#11.47 243349942#1 243349942#1.25 805658294#4 805658294#4.48 -6472289#3 -6472289#2 -243349944#22 -243349944#22.50 -243349944#20 -243349944#20.50 -6494975#7 -6494975#6 -6494975#6.81 256994205#3 428246847#0 428246847#0.8 428246847#0.22 6386110#0 6386110#0.16 6386110#0.25 6386110#0.55 -243349338#6 -243349338#6.14"/>
</vehicle>
<vehicle id = "veh13" type= "veh_passenger" depart="10815" >
<route edges =" -816616074#1 -816616074#1.10 -816616074#1.14 -816616074#1.119 428341734#4 428341734#4.8 428246439#0 428246439#0.14 428246438#0 428246438#0.8 428246440#0 428246440#0.62 800744529#0 800744529#0.7 800744529#0.52 800744529#0.89 826314455#0 826314455#0.11 826314455#0.39 826314455#0.53 826314455#0.57 826314455#0.65 57883609#3 57883609#3.43 57883609#3.52 57883609#3.60 57883609#3.80 620762214 -349901822#3 -349901822#3.58 96029553#0 96029553#0.9 96029553#0.15 96029553#0.59 8071900#0 8071900#0.7 8071900#0.18 8071900#0.88 -22917111#26 -22917111#26.7 -22917111#26.41 -22917111#26.121 32135548#5 32135548#5.7 32135548#5.49 32135548#5.88 32135548#9 32135548#9.7 32135548#9.47 32135548#9.63 32135548#9.78 525497323#0 525497323#0.50 -6481166#12 -6481166#11 -6481166#11.122 -6481166#11.125 -6481166#10 -6481166#10.6 -6481166#10.8 -6481166#10.120 353690154#15 353690154#15.50 243339793#0 243339793#0.48 -460419011#0 -460419011#0.11 460419013#0 460419013#0.51 801995082 243339793#4 243339793#5 243339793#6 243339793#6.50 243339793#6.74 22917113#0 22917113#0.56 6464126#9 6464126#9.46 -185485132#3 -185485132#3.101 243339793#11 243339793#11.47 243339793#13 243339793#13.49 243339793#15 243339793#15.46 -6472293#6 -6472293#6.7 -6472293#5 -6472293#5.39 185485117#1 185485117#2 -6396312#2 6463541#1 6463541#2 6463541#2.38 6463541#2.41 6506505#2 6425683#1 6348024#4 -259277920#2 -259277920#2.56 -259277920#1 6449970#8 -359671040#1 -359671040#1.39 359671039#0 359671039#1 -6464130#1 -6464130#1.43 -6501822#11 -6464126#18 -6464126#18.45 -6464126#16 -6464126#16.47 -6464126#14 -6464126#14.50 6494975#2 243349338#5"/>
</vehicle>
<vehicle id = "veh14" type= "veh_passenger" depart="10815" >
<route edges =" 817434294 817434294.10 817434294.36 817434294.44 817434294.63 817434294.119 816616072#4 816616072#4.7 816616072#4.62 816616072#4.121 6430729#0 6430729#0.7 6430729#0.86 813722270#5 813722270#5.7 813722270#5.118 -158882495#1 -158882495#1.91 6346526#0 6346526#0.6 6346526#0.99 6346526#0.121 337668916#4 337668916#4.6 337668916#4.52 337668916#6 337668916#6.37 337668916#6.48 -160552467#0 171739207#2 171739207#2.46 -65588100#6 -65588100#6.7 -65588100#4 -65588100#4.73 -65588100#4.110 -65588100#1 -65588100#1.65 -826314455#3 -826314455#3.64 -826314455#3.71 -826314455#3.76 -826314455#3.90 -826314455#3.118 -349901821 -826314456#4 -826314456#4.12 -826314456#4.19 -826314456#4.65 -826314456#4.106 -337673339 -337673337 185882764 185882764.13 185882764.14 185882765 185882765.16 185882765.26 185882765.30 185882765.31 395933841 164418944#0 164418944#0.13 164418944#0.18 164418944#0.32 164418944#0.39 -353690148#9 -353690148#9.7 -353690148#9.10 -353690148#9.12 -353690148#9.13 -353690148#9.38 -353690148#9.143 -353690148#6 -353690148#6.8 -353690148#6.122 -353690148#3 -353690148#3.7 -353690148#3.59 -353690148#3.121 -353690147#3 -353690147#3.7 -353690147#3.110 -353690147#3.122 353690152#0 353690152#0.9 353690152#0.90 -353690149#3 -353690149#3.9 -353690149#3.73 -353690149#3.196 353690160#0 353690160#0.6 353690160#0.88 353690160#3 353690160#3.6 353690160#3.90 179552384#0 179552384#0.7 179552384#0.28 179552384#0.44 179552384#0.49 179552384#0.89 465971499#0 465971499#0.6 263669069#0 -6447971#7 -6447971#6 -6447971#5 6507809#4 -6515975#5 -6515975#5.48 169917351#7 169917351#7.49 6380913#4 6507809#7 6507809#7.46 6507809#7.87 6507809#10 6507809#10.8 6507809#10.91 6507809#13 6507809#13.9 6507809#13.77 6452520#6 6452520#6.7 185485127#0 6523501#5 6523501#5.201 926425191#0 926425191#0.5 926425191#2 926425193#2 926425193#2.6 926425193#2.94 926425193#2.182 926425193#2.204 926425193#2.206 185485127#4 185485127#4.10 -6391682#2 -6391682#2.31 -6391682#2.42 -6391682#2.52 -6391682#2.64 6507813#0 -6472293#1 -6472293#1.180 -6472293#1.202 6351349#0 6351349#0.4 6351349#0.39 6351349#2 642753174 -6384264 -6489809#2 -6415147#5 428247193#3 428247193#3.27 486632638#0 486632638#0.14 486632638#0.27 -460421482#10 -460421482#10.13 -460421482#10.46 -460421482#10.56 -460421482#10.76 6358721#0 6358721#0.9 -6415147#3 6497081#2 6497081#2.38 6497081#2.47 6497081#2.53 6497081#2.60 6497081#2.67 6497081#2.70 6497081#2.74 6497081#2.81 6497081#2.120 6497081#6 6497081#6.44 -6414318#2 -6414318#2.8 795669782#2 6371720#2 6371720#3 157167355#0"/>
</vehicle>
<vehicle id = "veh15" type= "veh_passenger" depart="10815" >
<route edges =" -814326475#2 -814326475#2.9 -814326475#2.24 -814326475#2.41 -814326475#2.70 -814326475#2.91 -6456052#5 -6456052#5.10 -6456052#5.36 -6456052#5.120 -6456052#1 -6456052#1.10 -6456052#1.62 -607691082#1 -607691082#0 -6475815#3 -6475815#3.2 -6475815#3.17 -6475815#3.46 -428089348#3 -428089348#3.15 -428089348#3.21 -428089348#3.28 -428341218#2 -428341218#2.3 -428341218#2.9 -65588069#1 -65588069#1.13 -428089351#1 -428089351#1.16 -293753570#2 -293753570#2.9 -293753570#2.83 -369877031#7 -369877031#7.10 -369877031#7.98 -369877031#7.191 -749622503#8 -749622503#8.7 -749622503#8.63 -749622503#8.83 -749622503#4 -749622503#4.84 -749622503#2 -749622503#2.9 -749622503#2.29 -749622503#2.64 -749622503#2.84 -6522514#4 -6522514#4.7 -6522514#4.36 -6522514#4.61 -6522514#4.66 -6522514#4.67 -6522514#4.73 -332223490#1 -332223490#1.19 -428088887#1 -428088887#1.12 -428088892 -428088886#1 -428088886#1.24 -428088886#1.35 -428088886#1.45 6463530#0 6463530#0.2 6463530#0.8 6463530#0.13 6463530#0.54 6463530#0.95 -6456044#5 -6456044#5.7 -6456044#5.86 6467490#0 6467490#0.7 6467490#0.49 6467490#0.78 -401497115 -401497115.113 -401497115.170 -401497115.214 -428233435 -460425668 -460425668.5 -6457806#2 -6457806#2.21 -6457806#2.25 -6457806#2.30 6465162#0 6465162#0.2 6465162#0.6 6465162#0.11 6465162#0.36 428233434 428233434.31 428233434.58 332223487#0 332223487#0.16 332223487#0.62 332223487#0.98 332223488 332223488.25 332223488.48 332223488.65 332223488.68 332223488.88 347092907#0 347092907#0.3 347092907#0.13 347092907#0.19 347092907#0.26 347092907#0.31 347092907#0.38 347092907#0.40 347092907#0.45 347092907#0.51 332223494#0 332223494#0.18 332223494#0.35 332223494#0.144 332223494#0.171 22760519#0 22760519#0.7 22760519#0.27 22760519#3 22760519#3.9 22760519#3.21 22760519#3.33 22760519#3.91 965874293#0 965874293#0.9 965874293#0.40 965874293#2 965874293#2.45 760645196#0 760645196#0.8 760645196#0.188 -6388742#5 -6388742#5.6 -6388742#5.38 -6388742#2 -6388742#2.30 -6388742#2.38 965874292#7 965874292#7.8 965874292#7.41 965874292#10 965874292#10.35 965874292#12 965874292#12.8 965874292#12.69 158123767#0 158123767#0.10 158123767#0.11 158123767#0.50 158123767#0.74 158123767#0.86 158123767#0.115 158123767#0.122 158123767#0.134 158123767#0.139 158123767#0.166 795669782#0 795669782#0.54 6414318#1 6414318#1.86 6414318#3 -157167355#0"/>
</vehicle>
<vehicle id = "veh16" type= "veh_passenger" depart="14420" >
<route edges =" -813722269#3 -813722269#3.7 -813722269#3.48 -813722269#3.84 -813722269#3.86 569505974#0 569505974#0.10 569505974#0.37 816616073#0 816616073#0.78 813722270#0 813722270#0.7 813722270#0.42 813722270#0.74 813722270#0.75 813722270#0.121 6430729#3 6430729#3.9 6430729#3.48 6430729#6 6430729#6.47 6430729#6.48 6430729#9 6430729#9.48 8071898#2 6343949#8 6343949#8.52 6343949#10 6343949#10.49 6343949#12 6343949#12.47 -525497324#3 -525497324#2 243349944#4 243349944#4.53 243349944#6 243349944#7 243349944#8 243349944#9 396055523#9 396055523#9.6 396055523#9.20 396055523#9.54 6447445#0 6447445#0.8 6447445#0.87 6447445#3 6447445#3.51 6447445#5 6447445#5.47 6447445#7 6447445#7.46 6447445#9 6447445#9.49 -22760521#2 -22760521#2.81 -22760521#2.121 428246847#0 428246847#0.8 428246847#0.22 6386110#0 6386110#0.16 6386110#0.25 6386110#0.55 -243349338#6 -243349338#6.14"/>
</vehicle>
<vehicle id = "veh17" type= "veh_passenger" depart="14420" >
<route edges =" -816616074#1 -816616074#1.10 -816616074#1.14 -816616074#1.119 428341734#4 428341734#4.8 428246439#0 428246439#0.14 428246438#0 428246438#0.8 428246440#0 428246440#0.62 800744529#0 800744529#0.7 800744529#0.52 800744529#0.89 825336588#0 825336588#0.7 96029553#0 96029553#0.9 96029553#0.15 96029553#0.59 -893866066#2 -893866066#2.7 -893866066#2.122 -353690150#2 -353690150#2.8 -353690150#2.144 293775902#0 293775902#0.7 293775902#0.52 293775902#0.90 293775902#4 293775902#4.6 293775902#4.49 293775902#4.88 293775902#8 293775902#8.6 293775902#8.49 293775902#8.91 293775902#12 293775902#12.3 293775902#12.50 6481166#12 525497323#2 525497323#2.81 40416132#0 40416132#0.19 40416132#1 40416132#1.90 -801995081#2 -801995081#2.109 6464126#5 6464126#6 6464126#7 6464126#7.50 6464126#9 6464126#9.46 185485132#4 243349338#3 243349338#3.49 243349338#5"/>
</vehicle>
<vehicle id = "veh18" type= "veh_passenger" depart="14420" >
<route edges =" 817434294 817434294.10 817434294.36 817434294.44 817434294.63 817434294.119 6343949#0 6343949#0.7 6343949#0.86 -816616073#1 -816616073#1.7 -569505974#1 -569505974#1.6 -569505974#1.33 -569505976#2 -569505976#2.9 -569505976#2.88 -569505976#2.115 -569505976#2.119 -569505978#1 -569505978#1.10 -569505979 -569505979.32 -569505979.79 -395714916#1 -395714916#1.12 -568043367 -568043367.41 -568043367.79 -293775903#2 -293775903#2.10 -293775903#2.37 -293775903#2.89 -293775903#2.118 893866060#0 893866060#0.10 893866060#0.69 893866060#0.91 -243338979#20 -243338979#20.7 -243338979#20.121 353690157#0 353690157#0.5 353690157#0.19 353690157#0.47 353690157#0.72 353690157#0.87 893866056#0 893866056#0.8 893866056#0.64 893866056#0.88 -893866057 -893866057.8 -893866057.9 -893866057.122 460419029#0 460419029#0.7 460419029#0.51 460419029#0.53 460419029#0.89 460419029#5 460419029#5.8 460419029#5.52 460419029#5.91 460419029#9 460419029#9.7 460419029#9.45 -901419468#4 -901419468#4.51 -901419468#4.132 -901419468#4.164 -901419468#4.186 -901419468#4.196 -901419468#4.197 -512168130#2 -512168130#2.10 -512168130#2.12 -512168130#2.65 -512168130#2.197 6467507#0 6467507#0.7 6467507#0.88 6467507#3 -6447971#5 -6447971#4 169917351#6 169917351#7 169917351#7.49 169917351#9 169917351#9.48 169917351#9.87 6516509#15 6516509#15.7 6516509#15.35 6516509#15.48 6516509#15.68 6516509#15.70 6516509#15.79 6516509#15.84 6516509#15.98 6516509#15.101 256996976#0 256996976#0.11 256996976#0.20 256996976#0.46 256996976#0.79 6487445#0 6487445#0.8 6415147#0 6415147#0.61 6449462#3 6449462#3.7 6449462#3.50 6449462#3.60 6449462#3.72 6449462#3.87 795669782#0 795669782#0.54 -6414318#0 -6414318#0.76 -6414318#0.81 460418987#0 460418987#0.4 460418987#0.8 460418987#1 6371720#0 6371720#0.7 6371720#2 6371720#3 157167355#0"/>
</vehicle>
<vehicle id = "veh19" type= "veh_passenger" depart="14420" >
<route edges =" -814326475#2 -814326475#2.9 -814326475#2.24 -814326475#2.41 -814326475#2.70 -814326475#2.91 -723013181#2 -723013181#2.9 -723013181#2.18 -723013181#2.38 -723013181#0 -332601014#3 -332601014#3.31 -332601014#3.36 -332601014#3.42 -428246436#1 -428246436#1.13 -428246436#1.22 -428246436#1.37 -808907363#3 -808907363#3.25 -808907363#3.35 -808907363#3.48 -808907363#3.53 -808907363#3.61 -797328240#3 -797328240#3.13 -797328240#3.26 -797328240#3.65 -797328240#3.93 -797328240#3.115 -337673342#5 -337673342#5.3 -337673342#5.9 -337673342#5.13 -337673342#5.21 -337673342#5.35 -337673342#5.72 -607691082#1 -607691082#0 -6475815#3 -6475815#3.2 -6475815#3.17 -6475815#3.46 -428089348#3 -428089348#3.15 -428089348#3.21 -428089348#3.28 332223491#0 332223491#0.12 6438604#0 6438604#0.3 6438604#0.6 6438604#0.8 6438604#0.10 6438604#0.11 6438604#0.13 6438604#0.44 6438604#0.60 -22927969#14 -22927969#14.8 -22927969#14.47 -22927969#14.89 -293753570#5 -293753570#5.6 -293753570#5.37 -293753570#5.47 -293753570#5.60 -293753570#5.82 -428089352#1 -428089352#1.12 -428089350 -428089350.17 -428089350.43 6511397#0 6511397#0.10 6511397#0.54 6511397#0.83 6511397#4 6511397#4.7 6511397#4.54 6511397#4.85 6511397#8 6511397#8.7 6511397#8.84 -6462029#13 -6462029#13.9 -6462029#13.48 -6462029#13.90 -749622503#25 -749622503#25.7 -749622503#25.85 -749622503#22 -749622503#22.9 -749622503#22.51 -749622503#22.84 -749622503#18 -749622503#18.7 -749622503#18.55 -749622503#18.81 -749622503#15 -749622503#15.9 -749622503#15.31 -749622503#15.46 -749622503#15.51 -749622503#15.67 -749622503#15.85 -749622503#8 -749622503#8.7 -749622503#8.63 -749622503#8.83 -749622503#4 -749622503#4.84 -749622503#2 -749622503#2.9 -749622503#2.29 -749622503#2.64 -749622503#2.84 -369877039 -369877039.36 -369877039.55 -428088903#1 -428088903#1.15 428231018#0 428231018#0.12 428231018#0.30 465971497#0 465971497#0.10 465971497#0.34 369877037#0 369877037#0.9 369877037#0.83 537686684#0 537686684#0.43 537686684#0.53 -332223489#3 -332223489#3.4 -332223489#3.15 -332223489#3.17 -332223489#3.21 -401497115 -401497115.113 -401497115.170 -401497115.214 -428233435 -460425668 -460425668.5 -6457806#2 -6457806#2.21 -6457806#2.25 -6457806#2.30 6476922#0 6476922#0.13 6476922#0.24 6476922#0.37 6476922#0.60 6476922#0.67 32121988#0 32121988#0.9 32121988#0.30 32121988#0.39 32121988#0.51 32121988#0.83 347092908 347092908.18 347092908.44 347092908.47 347092908.49 6476327#0 6476327#0.4 6476327#0.9 6476327#0.63 6476327#0.102 6476327#4 6476327#4.7 6476327#4.35 6476327#4.86 893868549#12 893868549#12.7 893868549#12.90 -893868550#2 -893868550#2.7 -893868550#2.86 901477545#0 901477545#0.8 901477545#0.89 901477545#4 901477545#4.7 901477545#4.69 901477545#7 901477545#7.5 901477545#7.83 169917351#0 169917351#0.8 169917351#0.53 169917351#0.88 -6481166#3 -6481166#3.7 -6481166#3.37 -6481166#3.105 256996972 256996972.16 256996972.70 256996978#0 256996978#0.7 256996978#0.68 6445835#0 6445835#0.41 -22917665#1 -22917665#1.88 881403606#4 881403606#4.53 881403608#2 881403608#2.2 881403608#2.5 881403608#2.8 881403608#2.11 881403608#3 881403608#3.2 881403608#3.5 881403608#3.8 881403608#3.11 976099002#0 976099002#0.34 976099002#0.40 976099002#0.64 965874292#7 965874292#7.8 965874292#7.41 965874292#10 965874292#10.35 965874292#12 965874292#12.8 965874292#12.69 158123767#0 158123767#0.10 158123767#0.11 158123767#0.50 158123767#0.74 158123767#0.86 158123767#0.115 158123767#0.122 158123767#0.134 158123767#0.139 158123767#0.166 795669781 795669781.52 795669781.56 6497081#6 6497081#6.44 6414318#3 -157167355#0"/>
</vehicle>
<vehicle id = "veh20" type= "veh_passenger" depart="18025" >
<route edges =" -813722269#3 -813722269#3.7 -813722269#3.48 -813722269#3.84 -813722269#3.86 620762213#0 620762213#0.9 620762213#0.88 620762212#0 620762212#0.8 620762212#0.52 620762212#3 620762212#4 620762212#4.122 160552467#0 160552467#1 160552467#1.43 160552467#1.66 160552467#1.99 160552467#1.104 160552467#1.111 160552467#6 160552467#6.15 160552467#6.20 160552467#6.50 -158882505#5 -158882505#5.47 -158882505#3 -158882505#2 6368665#2 158882517#1 158882517#2 158882517#3 158882517#4 -6403883#2 158882505#7 158882505#8 -6457203#3 -6457203#3.34 -6457203#3.51 -6457203#3.73 -6457203#3.81 -6457203#0 6384359#0 6384359#0.22 6384359#0.45 6384359#0.50 6384359#4 6384359#4.13 6384359#4.31 6384359#4.51 -6464042#2 -6464042#2.80 6463017#2 6463017#2.44 6463017#2.48 -6513783#1 -6513783#1.10 962517344 962517344.33 -6381494#0 292812445#9 292812445#9.49 292812445#11 292812445#11.49 481291015#0 481291015#0.20 481291015#0.59 -343521145#3 -343521145#3.32 -343521145#3.66 -343521145#3.101 -343521145#3.142 -343521145#3.155 -343521145#0 -343521145#0.41 -343521145#0.63 -66558981#7 -66558981#7.65 -66558981#7.83 -66558981#7.105 -66558981#7.123 243349944#6 481291488#5 481291488#5.46 481291488#5.56 481291488#5.102 481291488#5.127 481291488#5.144 337739271#0 337739271#0.10 337739271#0.13 337739271#1 337739271#1.6 337739269#0 337739269#1 337739269#1.30 -801995081#6 -801995081#6.9 -801995081#5 -801995081#5.197 -801995081#5.209 256994206#0 256994206#0.8 256994206#0.43 256994206#0.60 396055524#0 396055524#0.9 396055524#0.30 396055524#0.54 396055524#0.65 256994205#0 256994205#0.67 256994205#1 256994205#2 256994205#2.24 256994205#2.72 256994205#3 428246847#0 428246847#0.8 428246847#0.22 6386110#0 6386110#0.16 6386110#0.25 6386110#0.55 -243349338#6 -243349338#6.14"/>
</vehicle>
<vehicle id = "veh21" type= "veh_passenger" depart="18025" >
<route edges =" -816616074#1 -816616074#1.10 -816616074#1.14 -816616074#1.119 428341734#4 428341734#4.8 428246439#0 428246439#0.14 -569505978#1 -569505978#1.10 -569505979 -569505979.32 -569505979.79 337673338#0 337673338#0.14 337673337 337673339 826314456#0 826314456#0.9 826314456#0.50 826314456#0.96 826314456#0.103 349901822#0 349901822#0.9 349901822#2 349901822#2.21 -620762214 179551719 179551719.37 179551719.46 179551719.51 179551719.88 179551719.93 179551719.97 739843348#0 739843348#0.4 739843348#0.9 620762218#0 620762218#0.55 620762218#0.66 620762218#0.68 620762218#0.81 620762218#3 620762218#3.7 -525497324#2 -243349944#3 -243349944#3.48 -243349944#3.77 -243349944#3.93 -6440348#5 -6440348#5.15 -6440348#5.21 -6440348#5.35 -6440348#5.44 -6440348#5.122 -8071900#7 -8071900#7.9 -8071900#7.49 -8071900#7.91 -22917111#26 -22917111#26.7 -22917111#26.41 -22917111#26.121 32135548#5 32135548#5.7 32135548#5.49 32135548#5.88 32135548#9 32135548#9.7 32135548#9.47 32135548#9.63 32135548#9.78 525497323#0 525497323#0.50 -6481166#12 -6481166#11 -6481166#11.122 -6481166#11.125 6464138#14 -481291488#1 6464126#0 6464126#0.46 6464126#0.49 6464126#3 6464126#3.49 6464126#5 -460419028#3 243349338#0 243349338#0.18 243349338#1 -22917113#2 -22917113#1 -22917113#1.55 243339793#9 243339793#9.48 185485132#3 185485132#3.10 6464126#11 6464126#11.50 6494975#2 243349338#5"/>
</vehicle>
<vehicle id = "veh22" type= "veh_passenger" depart="18025" >
<route edges =" 817434294 817434294.10 817434294.36 817434294.44 817434294.63 817434294.119 6343949#0 6343949#0.7 6343949#0.86 6343949#3 6343949#3.9 6343949#3.49 -620762212#2 -620762212#2.76 -620762212#2.120 -800744530#5 -800744530#5.9 -800744530#5.19 -800744530#5.73 -800744530#5.84 -800744530#5.118 -800744528#1 -800744528#1.8 -800744528#1.16 -800744528#1.37 -800744528#1.72 -337673339 -337673337 185882764 185882764.13 185882764.14 185882765 185882765.16 185882765.26 185882765.30 185882765.31 -243338979#28 -243338979#28.13 -243338979#28.49 -243338979#28.142 -243338979#28.143 -243338979#25 -243338979#25.8 -243338979#25.64 -243338979#25.77 -243338979#25.120 893866060#4 893866060#4.6 893866060#4.48 893866060#4.89 893866060#8 893866060#8.7 893866060#8.65 893866060#8.89 -893866059#2 -893866059#2.7 -893866059#2.120 -893866059#2.121 353690154#0 353690154#0.7 353690154#0.49 353690154#0.90 353690154#4 353690154#4.6 353690154#4.49 353690154#4.54 353690154#4.87 353690154#8 353690154#8.7 353690154#8.42 353690154#8.50 353690154#8.92 353690154#12 353690154#12.6 353690154#12.32 -6481166#9 -6481166#9.8 486874837#1 486874837#2 486874837#2.47 460419011#0 460419011#0.101 243339793#2 243339793#2.49 -801995082 481291014#0 481291014#0.53 460419024#0 460419024#0.9 460419024#0.19 460419024#0.34 460419024#0.53 460419024#0.102 460419024#5 460419024#5.50 460419024#5.63 460419024#5.69 6516509#0 6516509#0.7 6516509#0.30 6516509#0.46 6516509#0.66 6516509#0.90 6516509#0.105 6516509#0.109 -6463536#1 -6463536#1.10 -6463536#1.11 -6463536#1.22 -6463536#1.32 -6463536#1.39 -6463536#1.43 -6463536#1.50 -6463536#1.60 -6463536#1.69 -6463532#3 -6463532#3.45 -6515975#7 6467507#6 6467507#6.51 6467507#8 6467507#8.87 6516509#8 6516509#8.7 6516509#8.85 6507809#10 6507809#10.8 6507809#10.91 -6360239#7 -6360239#7.6 -6360239#7.47 -6360239#7.86 169917351#16 169917351#16.9 169917351#16.77 169917351#19 169917351#19.6 169917351#19.71 -6523501#2 -6523501#2.5 -6523501#2.101 6497081#0 6497081#0.8 -6415147#2 6449462#3 6449462#3.7 6449462#3.50 6449462#3.60 6449462#3.72 6449462#3.87 795669782#0 795669782#0.54 795669782#2 795669782#3 795846818#0 795846818#0.1 -460418978#2 -460418978#2.5 -460418978#2.73 22917667#0 22917667#0.7 22917667#0.103 22917670#7 22917670#7.7 22917670#7.71 22917670#10 22917670#10.5 22917670#10.34 481291010#3 481291010#3.6 481291010#3.100 369455641#1 369455641#1.28 369455641#1.78 512126021#0 512126021#0.7 512126021#0.31 512126021#0.66 157167355#0"/>
</vehicle>
<vehicle id = "veh23" type= "veh_passenger" depart="18025" >
<route edges =" -814326475#2 -814326475#2.9 -814326475#2.24 -814326475#2.41 -814326475#2.70 -814326475#2.91 -723013181#2 -723013181#2.9 -723013181#2.18 -723013181#2.38 -723013181#0 -332601014#3 -332601014#3.31 -332601014#3.36 -332601014#3.42 -428246441#2 -428246441#2.2 -428246441#2.10 -723013876#1 -723013876#1.12 -723013876#1.18 -723013877 -6415868#5 6461453#6 6461453#6.38 6461453#6.80 6461453#6.92 6461453#6.95 -6343952#3 -6343952#3.3 -6343952#3.7 -6343952#2 6511393#8 8071579 -393047811 -460421473#2 -460421473#2.33 -6430733#0 -460423542#1 -460423542#1.73 -436163947#2 -436163947#2.10 -436163947#2.77 -256993082#5 -256993082#5.11 -256993082#3 -256993082#3.4 -256993082#3.32 -256993082#3.38 -508340468#5 -508340468#5.10 -508340468#5.76 -508340468#2 -508340468#2.20 -508340468#2.58 -460423539#2 -460423539#2.8 -460423539#2.47 -460423539#2.71 6415868#0 6415868#0.47 6415868#2 6415868#2.24 6415868#2.65 -6349123#6 -6349123#6.48 -6349123#6.62 -6349123#6.115 -723052304#0 -6511393#1 -6511393#1.119 -912290518#7 -912290518#7.59 -912290518#5 -912290518#5.5 -912290518#5.37 -912290518#5.42 -912290518#5.62 -912290518#5.70 -912290518#2 -912290518#2.2 -912290518#2.24 -912290518#2.91 -912290518#2.94 -165086027#1 -165086027#1.2 -165086027#1.5 -759056491 -759056491.4 -759056491.8 -759056491.13 -759056491.17 -759056491.21 -759056491.26 -759056491.41 -759056491.81 -759056491.83 -759056491.88 -337673342#5 -337673342#5.3 -337673342#5.9 -337673342#5.13 -337673342#5.21 -337673342#5.35 -337673342#5.72 -607691082#1 6501701#2 6501701#2.50 6501701#2.60 -6475815#4 -6475815#3 -6475815#3.2 -6475815#3.17 -6475815#3.46 -428089348#3 -428089348#3.15 -428089348#3.21 -428089348#3.28 -353690151#5 -353690151#5.11 -353690151#5.12 -353690151#5.26 -353690151#5.83 -353690151#5.102 -353690151#2 -353690151#2.9 -353690151#2.22 -353690151#2.24 -353690151#2.39 -353690151#2.72 -353690151#2.92 -433500388#1 -433500388#1.11 -433500388#1.46 -433500388#1.73 -433500388#1.113 -433500388#1.115 -428088900#1 -428088900#1.10 -428088894#1 -428088894#1.25 -428088883#1 -428088883#1.15 -428088897 -428088888 -737711647 -332223490#1 -332223490#1.19 -465971498#3 -465971498#3.2 -465971498#3.3 -465971498#3.5 -465971498#3.7 -465971498#3.10 -465971498#3.34 -465971498#3.84 576974321#0 576974321#0.11 576974321#0.20 576974321#0.50 576974321#0.92 -6502980#7 -6502980#7.6 -6502980#7.48 -6502980#7.86 -6502980#3 -6502980#3.7 -6502980#3.69 -6502980#3.84 347094711#0 347094711#0.7 347094711#0.20 347094711#0.38 347094711#0.50 347094711#0.69 347094711#0.73 347094711#0.74 347094712#0 347094712#0.21 -332223489#3 -332223489#3.4 -332223489#3.15 -332223489#3.17 -332223489#3.21 -401497115 -401497115.113 -401497115.170 -401497115.214 -537677478#2 -537677478#2.10 -537677478#2.11 -537677478#2.28 -537677478#2.36 -6456046#3 -6456046#3.6 -6456046#3.36 -6456046#3.42 -6456046#3.49 -6456046#3.56 -6456046#3.62 -6456046#3.66 -6456046#3.71 -6456046#3.76 -6456046#3.92 -6456046#3.102 -6456046#3.109 -6456046#3.112 6402586#0 6402586#0.1 6402586#0.4 6402586#0.6 6402586#0.12 6402586#0.35 6402586#0.59 6402586#4 6402586#4.72 6402586#4.75 6402586#4.77 6402586#4.80 208021560#0 208021560#0.2 208021560#0.5 208021560#0.8 208021560#0.11 208021560#0.30 208021560#0.39 208021560#0.44 208021560#0.106 208021560#0.125 208021560#0.133 208021560#0.136 739874553#0 739874553#0.66 739874553#0.80 739874553#0.88 333370569#0 333370569#0.6 333370569#0.13 333370569#0.37 333370569#0.43 333370569#0.66 333370569#0.94 333370569#0.155 333370569#0.178 333370566#0 333370566#0.32 6405076#0 6405076#0.10 6405076#0.18 6405076#0.21 6405076#0.58 6405076#0.79 6405076#0.81 6405076#3 6405076#3.4 6405076#3.8 6405076#3.14 6405076#3.20 6405076#3.50 6405076#3.68 6405076#3.84 22917663#0 22917663#0.5 22917663#0.8 22917663#0.11 22917663#0.26 22917663#0.59 22917663#0.67 22917663#0.85 22917663#6 22917663#6.6 22917663#6.34 22917663#6.58 22917663#6.88 6506833#5 6506833#5.9 6506833#5.46 6506833#5.50 6506833#5.72 6506833#5.85 347092915#6 347092915#6.6 347092915#6.44 347092915#6.87 347092915#10 347092915#10.9 347092915#10.68 347092915#10.90 243338978#7 243338978#7.8 243338978#7.38 243338978#7.45 243338978#7.74 965874292#0 965874292#0.8 965874292#0.88 965874292#3 965874292#3.1 965874292#3.48 965874292#3.59 965874292#3.86 965874292#7 965874292#7.8 965874292#7.41 965874292#10 965874292#10.35 965874292#12 965874292#12.8 965874292#12.69 158123767#0 158123767#0.10 158123767#0.11 158123767#0.50 158123767#0.74 158123767#0.86 158123767#0.115 158123767#0.122 158123767#0.134 158123767#0.139 158123767#0.166 795669781 795669781.52 795669781.56 460421481#1 460421481#1.61 460421481#1.85 256997441#0 256997441#0.11 256997441#0.18 256997441#0.62 256997441#3 256997441#3.6 256997441#3.53 6351349#5 -185483733 -6414318#4 -157167355#0"/>
</vehicle>
<vehicle id = "veh24" type= "veh_passenger" depart="21630" >
<route edges =" -813722269#3 -813722269#3.7 -813722269#3.48 -813722269#3.84 -813722269#3.86 620762213#0 620762213#0.9 620762213#0.88 620762212#0 620762212#0.8 620762212#0.52 6343949#6 6343949#7 6343949#8 6343949#8.52 65588093#2 65588093#3 292812445#3 292812445#3.49 292812445#5 292812445#5.45 6513783#0 962517344 962517344.33 6381494#1 6463017#6 6463017#6.48 -6386837#0 337739268 337739268.124 337739267#0 337818462 337818462.3 337818462.6 337739271#1 337739271#1.6 337739269#0 -460419011#4 243349944#8 243349944#9 -396055523#8 -396055523#8.8 243349945#0 243349945#0.6 243349945#0.83 -6360256#9 -6360256#9.6 243349944#13 243349944#13.47 243349944#13.51 243349944#15 243349944#15.48 243349944#17 243349944#17.50 -6494975#7 -6494975#6 -6494975#6.81 256994205#3 428246847#0 428246847#0.8 428246847#0.22 6386110#0 6386110#0.16 6386110#0.25 6386110#0.55 -243349338#6 -243349338#6.14"/>
</vehicle>
<vehicle id = "veh25" type= "veh_passenger" depart="21630" >
<route edges =" -816616074#1 -816616074#1.10 -816616074#1.14 -816616074#1.119 428341734#4 428341734#4.8 428246439#0 428246439#0.14 428246438#0 428246438#0.8 428246440#0 428246440#0.62 800744529#0 800744529#0.7 800744529#0.52 800744529#0.89 -349901821 -6476313#2 -6476313#2.11 -6476313#2.29 -6476313#2.98 -6476313#2.99 -6476313#2.103 -6476313#2.107 164418944#4 164418944#4.7 164418944#4.8 164418944#4.29 164418944#4.51 164418944#4.95 32135548#0 32135548#0.6 32135548#0.48 32135548#0.53 32135548#0.64 32135548#0.89 32135548#0.90 32135548#5 32135548#5.7 32135548#5.49 32135548#5.88 -6440371#11 -6440371#11.12 -6440371#11.144 -6440371#8 -6440371#8.7 -6440371#8.122 -6440371#8.124 -6440371#8.125 6464138#8 6464138#8.7 6464138#8.49 6464138#8.88 6464138#12 6464138#12.51 6464138#14 -481291488#1 -481291488#0 -481291488#0.69 -481291488#0.82 -6447971#10 -6447971#10.11 -6447971#9 -6447971#8 -6447971#7 6463532#0 6463532#0.49 6515975#8 460419009#0 460419009#0.64 460419009#0.93 460419007#1 460419007#1.26 460419013#0 460419013#0.51 801995082 243339793#4 243339793#5 243339793#6 243339793#6.50 243339793#6.74 -22917112 481291012#0 481291012#0.24 481291012#0.32 481291012#2 481291012#2.49 481291012#5 481291012#5.49 481291012#7 481291012#7.20 -428246845 -6386110#6 -6386110#6.5 -243339793#14 -243339793#14.51 6494975#1 6494975#1.9 6494975#2 243349338#5"/>
</vehicle>
<vehicle id = "veh26" type= "veh_passenger" depart="21630" >
<route edges =" 817434294 817434294.10 817434294.36 817434294.44 817434294.63 817434294.119 6343949#0 6343949#0.7 6343949#0.86 -816616073#1 -816616073#1.7 -569505974#1 -569505974#1.6 -569505974#1.33 -569505976#2 -569505976#2.9 -569505976#2.88 -569505976#2.115 -569505976#2.119 -569505978#1 -569505978#1.10 -569505979 -569505979.32 -569505979.79 -395714916#1 -395714916#1.12 -568043367 -568043367.41 -568043367.79 893866065#0 893866065#0.10 893866065#0.66 893866065#0.92 893866065#3 893866065#3.6 893866065#3.48 893866065#3.88 893866065#7 893866065#7.7 893866065#7.48 893866065#7.90 -893866064#2 -893866064#2.7 -893866064#2.122 6464138#0 6464138#0.7 6464138#0.53 6464138#0.92 6464138#4 6464138#4.6 6464138#4.51 6464138#4.88 -6440371#5 -6440371#5.4 -6440371#5.6 -6440371#5.7 -6440371#5.119 -6440371#5.121 353690154#8 353690154#8.7 353690154#8.42 353690154#8.50 353690154#8.92 -6512920#3 -6512920#3.8 -6512920#3.9 -6512920#3.19 -6512920#3.59 -6512920#3.92 486874837#0 -6481166#8 -6481166#8.162 -6481166#6 -6481166#5 6507809#3 6507809#4 6515975#6 6467507#6 6467507#6.51 6467507#8 6467507#8.87 6516509#8 6516509#8.7 6516509#8.85 6516509#11 6516509#11.6 6516509#11.34 6516509#11.86 169917351#12 169917351#12.9 169917351#12.42 169917351#12.90 -6360239#3 -6360239#3.6 -6360239#3.69 -6360239#3.102 256996976#3 256996976#3.7 256996976#3.76 460421482#0 460421482#0.8 460421482#0.73 6523501#0 6523501#0.9 6523501#0.105 169917351#22 169917351#22.7 169917351#22.72 -6494970#2 -6494970#2.4 -6494970#2.100 6358721#0 6358721#0.9 6415147#4 -428247193#2 -428247193#2.56 -428247193#2.61 -428247193#2.96 -428247193#2.117 -428247193#2.121 -428247193#2.140 -428247193#2.154 -428247195 -428247195.5 -460421481#2 -460421481#2.8 -460421481#2.32 6497081#6 6497081#6.44 6497081#8 6371720#3 157167355#0"/>
</vehicle>
<vehicle id = "veh27" type= "veh_passenger" depart="21630" >
<route edges =" -814326475#2 -814326475#2.9 -814326475#2.24 -814326475#2.41 -814326475#2.70 -814326475#2.91 -6456052#5 -6456052#5.10 -6456052#5.36 -6456052#5.120 -6456052#1 -6456052#1.10 -6456052#1.62 -337673342#0 6343890#0 6343890#0.54 6343890#0.56 6343890#0.58 6343890#0.59 6343890#0.61 -6475815#6 -6475815#6.16 -6475815#4 -6475815#3 -6475815#3.2 -6475815#3.17 -6475815#3.46 -428089348#3 -428089348#3.15 -428089348#3.21 -428089348#3.28 -353690151#5 -353690151#5.11 -353690151#5.12 -353690151#5.26 -353690151#5.83 -353690151#5.102 -353690151#2 -353690151#2.9 -353690151#2.22 -353690151#2.24 -353690151#2.39 -353690151#2.72 -353690151#2.92 -433500388#1 -433500388#1.11 -433500388#1.46 -433500388#1.73 -433500388#1.113 -433500388#1.115 -428088900#1 -428088900#1.10 -428088894#1 -428088894#1.25 -532166310#2 -532166310#2.3 -532166310#2.13 -6522514#4 -6522514#4.7 -6522514#4.36 -6522514#4.61 -6522514#4.66 -6522514#4.67 -6522514#4.73 -332223490#1 -332223490#1.19 6514305#0 6514305#0.3 6514305#0.4 6514305#0.9 6514305#0.14 6514305#0.34 6514305#0.54 353690159#1 353690159#1.50 353690159#1.92 -6343878#11 -6343878#11.8 -6343878#11.104 6463530#10 6463530#10.5 6463530#10.49 6463530#10.87 -6435230#7 -6435230#7.4 -6435230#7.24 -6435230#7.64 -347094714#7 -347094714#7.12 -347094714#7.50 -347094714#7.93 -347094714#3 -347094714#3.9 -347094714#3.49 -347094714#3.92 6467490#0 6467490#0.7 6467490#0.49 6467490#0.78 -401497115 -401497115.113 -401497115.170 -401497115.214 -428233435 -460425668 -460425668.5 425646007#0 425646007#0.10 425646007#0.17 425646007#0.20 425646007#0.22 425646007#0.27 425646003#0 425646003#0.15 6465162#0 6465162#0.2 6465162#0.6 6465162#0.11 6465162#0.36 428233434 428233434.31 428233434.58 332223487#0 332223487#0.16 332223487#0.62 332223487#0.98 893872038 893872038.9 893872038.14 893872038.97 893872038.123 893872038.129 893872038.134 347092915#0 347092915#0.8 347092915#0.32 347092915#0.44 347092915#0.89 347092915#0.182 6506833#11 6506833#11.9 6506833#11.45 6506833#11.74 6506833#11.79 6506833#15 6506833#15.8 6506833#15.10 6506833#15.35 6506833#18 6506833#18.45 749863323#4 749863323#4.7 749863323#4.50 749863323#4.155 749863323#4.186 760645197#0 760645197#0.6 760645197#0.45 760645197#0.84 -263712957#16 -263712957#16.8 -263712957#16.140 -263712957#16.187 6506833#24 6506833#24.9 6506833#24.30 6506833#24.48 6506833#24.87 -6371699#1 -6371699#1.28 573669451#0 573669451#0.28 573669451#0.63 573669451#0.78 573669451#0.83 862387686#0 862387686#0.13 862387686#0.22 -481291008#2 -481291008#2.2 -481291008#2.11 -481291008#2.24 -263721997#5 -263721997#5.3 -263721997#5.15 -263721997#5.48 -263721997#5.83 -263721997#5.84 -263721997#5.86 658263993#0 658263993#0.7 658263993#0.52 658263993#0.57 658263993#0.90 658263993#0.161 6491356#4 6491356#4.5 6491356#4.177 6491356#4.178 6496658#0 6496658#0.30 6496658#0.31 -260318962#3 -260318962#3.5 -260318962#1 -260318962#1.73 -6388742#24 -6388742#24.5 -6388742#24.72 -6388742#21 -6388742#21.6 -6388742#21.71 -6388742#18 -6388742#18.5 -6388742#18.14 -6388742#18.22 -6388742#18.33 -6388742#18.42 -6388742#18.52 -6388742#18.64 -6388742#18.73 -6388742#15 -6388742#15.8 -6388742#15.46 -6388742#15.84 263712958#0 263712958#0.8 263712958#0.45 263712958#0.101 263712958#0.114 263712958#0.117 263712958#0.119 6445479#0 6445479#0.4 6445479#0.8 6445479#0.186 965874292#10 965874292#10.35 965874292#12 965874292#12.8 965874292#12.69 158123767#0 158123767#0.10 158123767#0.11 158123767#0.50 158123767#0.74 158123767#0.86 158123767#0.115 158123767#0.122 158123767#0.134 158123767#0.139 158123767#0.166 795669782#0 795669782#0.54 6414318#1 6414318#1.86 6414318#3 -157167355#0"/>
</vehicle>
</routes>
