<?xml version="1.0" encoding="UTF-8"?>
<routes xmlns:xsi="http: // www.w3.org/2001/XMLSchema-instance" xsi:noNamespaceSchemaLocation="http: // sumo.dlr.de/xsd/routes_file.xsd">
<vType id="veh_passenger" vClass="passenger"/>

<vehicle id = "veh0" type= "veh_passenger" depart="0" >
<route edges =" -45342801#4 -45342801#3 -45342801#2 -45342801#1 -45342801#0 45342798#2 45342798#3 45342798#4 45342798#5 45342813#0 45342813#1 45342813#2 -45342814#1 44740902#11 44740902#12 44740902#13 44740902#14 44740902#14.81 44740902#14.94 -874839172#0 -44740943 -313316091#20 951438760#0 951438760#1 -44740929#4 -951438759 44740922#2 44740922#2.25 44740953#0 44740953#2 44740953#3 44740953#4 44740953#5 44740953#6 44740953#7 44740949#2 -44740919#1 -44740919#0 44740920#8 -313316091#0 -313316091#0.27 -313316091#0.72 -313316091#0.80 -971495601#9 -971495601#9.28 -971495601#8 -971495601#7 -971495601#6 -971495601#5 -971495601#3 -971495601#1 -971495601#0 -313316086 -44739144#26 -44739144#24 -44739144#22 -44739144#21 -44739144#20 -44739144#19 -44739144#19.14 -44739144#18 -877398366#21 -877398366#20 -877398366#19 -877398366#18 -877398366#17 -877398366#17.7 -877398366#16 -877398366#15 -877398366#15.29 -877398366#14 -877398366#14.72 -877398366#13 -671191680#14 -671191680#13 -671191680#11 -671191680#9 -671191680#8 -671191680#6 -896786326#1 -896786326#0 -896786328#0 -896786328#0.177 -951951638#10 -951951638#10.18 -951951638#9 -951951638#8 -951951638#7 -951951638#5 -951951638#4 -951951638#3 -951951638#2 -951946794#1 -951946794#0 951946792#1 896786337#8 896786337#8.8 -951887683 -951887684 -951887682#6 -951887682#5 -951887682#4 -951887682#3 951887692 -951887691#0 -951887682#0 -951887700#14 -951961240#3 -951961240#1 -951961245 951891772#0 -951891773 -951891771#0"/>
</vehicle>
<vehicle id = "veh1" type= "veh_passenger" depart="0" >
<route edges =" 45342801#5 45342801#5.32 902433317#3 902433317#4 902433317#6 902433317#7 902433317#8 902433317#8.29 951368593#1 972507120#2 45342812#0 45342812#1 45342811#2 45342811#2.66 45344273#23 45344273#23.11 45344273#24 -897252873#2 -897252873#1 -897252873#1.42 -897252873#0 -897252873#0.25 897252876#4 45344320#2 45344320#3 -45344331#4 45344327#1 903341090 -45344335#4 -950235690#1 -950235690#0 -950235690#0.14 700254525#11 700254524#0 700254523 -700254525#0 45344272#4 950233988#0 45344283#9 45344283#10 45344283#10.15 45344283#10.46 45344283#10.69 45344283#10.88 45344283#10.150 45344283#10.196 45344283#10.260 45344283#10.377 45344283#10.468 45344283#10.514 670655885 670655885.12 896892975 971495602#12 971495602#12.26 971495602#12.77 951442813 951442812#0 -896786335#50 -896786335#49 -896786335#48 -896786335#48.15 -896786335#47 -896786335#46 -896786335#44 -896786335#44.9 -896786335#44.71 -896786335#43 -896786335#42 -896786335#42.22 -896786335#41 -896786335#40 -896786335#39 -896786335#39.27 -896786335#37 -896786335#36 -896786335#34 -896786335#33 -896786335#32 -896786335#32.17 -896786335#31 -896786335#31.22 -896786335#30 -896786335#29 -896786335#29.17 -896786335#28 -896786335#27 -896786335#27.19 -896786335#26 -951995494#1 -951995491#2 -951995491#1 -951995491#0 -896786266#12 909024250#0 909024250#1 909024250#2 909024250#4 909024250#5 909024250#6 909024239#0 909024239#1 909024239#1.17 909024239#2 909024239#2.40 -951983585 -951975994 -896786324#1 -896786324#0 -896786324#0.19 -896786324#0.132 -896786324#0.177 951951639#0 951946803#0 951946795#1 951946795#2 951946795#3 951946795#4 951946795#6 951946795#7 951946795#9 951946795#10 951946795#11 951946795#11.34 951946795#11.40 951946795#11.45 896786337#10 896786337#10.21 -951887700#20 -951887700#19 -671756019#4 -951961235 951961234#1 -951878265#2 -951878265#1 -951878265#0 951878264#2 -951878263#3 -951878266#4 -951878266#4.37 -951878266#2 -951878266#1 -951878266#1.39 -951878266#1.47"/>
</vehicle>
<vehicle id = "veh2" type= "veh_passenger" depart="0" >
<route edges =" 951370989 951370989.40 951370989.47 951370989.53 951370989.56 951370989.62 951370989.64 951370989.67 -902433320#1 -902433320#0 902433321#2 45342799#21 45342809#0 45342809#1 45342809#2 45342809#3 45342809#4 45342809#5 45342809#6 45342809#7 45342809#8 44740885#10 -45342826#1 -45342826#0 45342825#1 45342825#2 45342828#0 45342828#1 45342828#1.100 -45344273#6 -45344273#6.40 -45344273#6.59 -951384598#3 -951384598#2 -951404491 -951404491.16 -951404491.28 -951404491.40 -951404491.51 -951384599#0 700249213#9 700249213#10 700249213#11 45342808#10 45342808#11 45342808#11.24 45342808#12 -897252871 -897252870 -45344310#2 -45344310#1 -45344310#0 -45344310#0.10 -45344310#0.18 -45344310#0.30 -45344310#0.41 -45344310#0.52 971495602#8 971495602#8.24 971495602#8.86 -313316104#6 -45378650#5 -45378650#5.11 -45378650#4 45378645#0 45378645#0.44 -908846596#3 -908846596#2 45378650#1 -908846593 -908846593.73 908560901#8 908560901#8.23 908560901#8.56 -313316104#0 -313316082 -45378649#12 896786296#0 896786296#1 896786296#1.36 -896786262#6 -896786262#6.15 -896786262#5 -896786262#4 -896786262#4.31 -896786262#3 -896786262#3.9 -896786262#1 -896786262#0 -896786262#0.33 -896786262#0.115 -896786260#1 -896786260#1.5 -896786260#0 -896786260#0.52 896786257#4 909024248 909024248.50 -45378665#3 -45378665#3.29 -45378665#3.50 -45378665#2 -45378665#2.36 -45378665#1 -45378665#0 -45378665#0.39 -45378665#0.75 -896786335#14 -896786335#14.27 -896786335#13 -896786335#12 -896786335#12.15 -896786335#11 -896786335#10 -896786335#10.38 -951976010#1 -951976011#0 896786321#2 -896786320#3 -896786320#3.5 -896786320#1 -896786320#0 -896786316#3 -896786316#2 -896786316#1 -896786316#1.33 -896786314 -951930663#1 -951930663#0 -877395784#11 -877395784#11.58 951946825#0 951946825#1 -951946816#4 951946844 877399011#1 951946810#2 -896786337#14 -896786337#14.40 -896786337#14.111 -952365020 -952365021 -951878231#2 -951951643#6 -951951643#5 -951951643#4 -951951643#3 -951951643#2 876509484#2 -951951642#1 -951951642#0 -951878263#5 -951878269#15 -951891772#2 -951891774 951891771#2 951878270#2 877401978#0 877401978#1 951878266#0"/>
</vehicle>
<vehicle id = "veh3" type= "veh_passenger" depart="3605" >
<route edges =" -45342801#4 45342799#23 672813677#0 672813677#0.22 672813677#0.51 672813677#1 672813677#1.14 672813677#1.27 672813677#2 903341083#0 -951368605#2 -951368605#1 -951368605#0 -45342811#0 -45342801#0 -45342798#1 45342840#0 -45342810#2 -671416444#2 671416443#0 671416441 -671416442#0 -671416444#0 45342840#2 -45342839#1 -45342838#2 -45342838#1 -45342838#0 -45342810#0 -45342809#4 45342798#3 -45342837 -951441769 -951370985#0 45342818#3 -45342814#4 -45342814#3 -45342816#1 -45342816#0 -45342817#0 45342813#1 45342813#2 -45342814#1 44740902#11 44740902#12 671399046#2 671399046#2.23 671399046#3 671399046#3.56 -44740885#5 -44740885#5.33 -44740885#4 671399058#0 671399058#1 671399058#2 44740901#4 44740896#0 -951417473 -44740957#6 -44740957#5 -671399051#1 -671399051#0 -44740942#1 -44740942#0 974189220#5 902433296 44740967#0 44740929#7 44740929#8 -44740960#1 -44740960#0 -44740930#13 -44740930#12 44740929#0 44740967#4 44740922#5 44740922#5.74 44740926#0 44740923#2 44740923#3 -44740953#0 -44740922#2 -44740922#2.83 -44740922#1 -44740922#0 -313316091#16 -313316091#14 -313316091#14.20 -44740940#2 -44740948#1 -44740948#0 44740946#1 45378682#0 45378682#0.48 45378691 45378690#1 45378689#4 45378689#5 45378639#1 45378639#1.38 45378658#0 45378658#1 45378658#2 45378658#3 -45378683#3 -45378683#2 45378655#2 45378655#3 -45378685#2 671178935 -45378684#0 -45378684#0.58 -45378684#0.107 313316091#6 -44739167#15 -44739167#15.17 44740949#0 -44740951#1 -44740951#0 -44740953#4 -44739167#12 -44740927#13 -44740927#12 -44740927#11 951358806#0 951358806#1 44740926#8 -44739163#16 -44740981#1 44740983#0 44740983#1 44740927#9 44739163#18 44739163#19 -44740919#1 44740931#1 -313316091#1 -313316091#1.32 -313316091#0 -313316091#0.27 -313316091#0.72 -313316091#0.80 45340579#18 45340579#18.164 45340579#19 45340579#19.12 45340579#19.84 909019791#0 909019791#1 909019791#2 -44740916#4 -44740916#4.29 -909019776#1 -909019776#1.34 909019774 909019774.53 909019774.58 909019774.63 44740910#3 44740910#4 44740933#3 44740933#3.108 44740933#3.192 -44740932#6 -44740932#5 -44740932#4 -44740932#3 44740916#8 -668599377#1 -668599377#1.15 668599376#0 668599376#0.34 668599376#1 668599376#2 668599376#2.6 668599375#1 668599375#1.26 668599375#2 668599375#2.17 -44740934#0 -971495601#8 -971495601#7 -971495601#6 -971495601#5 -971495601#3 -44740910#8 -671410531#2 -909019784#2 -909019784#1 -909019784#1.47 -909019784#0 313316100#8 313316100#8.72 -971495601#0 -313316086 -44739144#26 -44739144#24 909024272#0 909024272#0.29 909024272#1 909024272#1.30 909024272#1.53 -909024271#0 -909024271#0.59 -909024271#0.78 909024277#2 909024277#2.19 909024277#2.45 -909024274 909024275#1 909024273#3 -896786296#17 -896786296#17.6 -896786296#17.12 -896786296#17.79 -896786296#16 -896786296#15 -896786296#15.18 -896786296#14 -896786296#14.71 -909024258#1 -909024258#1.26 -909024258#0 -909024259#1 -909024259#1.12 -909024259#0 896786295#5 896786295#6 896786295#6.12 896786295#8 896786295#8.21 896786295#8.23 896786295#9 -896786271#2 -896786271#2.29 896786270#0 896786270#1 896786269#9 909024280#0 909024280#1 909024280#1.17 -909024279#4 -909024279#4.31 909024277#0 909024270 909024270.21 909024270.47 896786294#10 896786294#11 896786294#11.40 -909024262#1 -909024262#1.12 -909024262#0 -702673217#0 -44739144#18 671752228#0 -671960103#1 -951346850 -44739144#15 -44739144#13 -877396860#22 -877396860#21 -877396860#20 -877396860#20.1 896786289#0 896786289#0.42 909024265#0 909024263 909024263.62 -909024264#0 909024265#2 909024265#2.13 -952002225#0 -877398366#20 -877398366#19 -877398366#18 -909024294#1 909024293#0 -909024290 -909024290.32 -877396860#16 -904286386#1 -904286386#1.81 -904286386#0 896786294#0 896786294#0.33 896786276 896786276.34 896786278#0 896786278#0.39 -896786279#5 -896786279#4 -896786279#4.27 -896786279#3 -896786279#3.22 -896786269#4 896786267#1 896786267#1.28 896786267#2 -877398366#13 -671191680#14 877396860#11 -904286382#1 -904286383#4 -904286383#3 -904286383#3.28 -904286380#0 904286381#6 -904371470#2 -904371470#1 -904371470#0 904371473#1 904371473#1.24 904371473#3 -904286388#0 -904286386#6 -904286385#15 -904286385#15.42 904371468 904371468.35 904371468.46 904371468.50 904371468.53 904371468.59 904371488#2 904371488#2.33 904371488#2.41 904371488#2.44 904371486#0 951992348 904286385#9 904286385#10 904286375#0 904286375#1 904286373#0 -951975997 -671191680#8 -671191680#6 -896786326#1 -896786326#0 -896786328#0 -896786328#0.177 -951951638#10 -951951638#10.18 -951951638#9 -951951638#8 -951973432#0 -952002224#5 -952002224#5.5 -952002224#4 -952002224#4.27 -952002224#3 -952002224#3.30 -952002224#3.48 -952002224#3.80 904286410#0 904286410#0.33 904286409#0 904286409#1 -951874861 -904286402#1 -904286402#0 -904286410#2 -904286411#3 951874850#0 951874850#1 951874850#1.25 951874850#1.28 951874850#1.31 951874850#1.34 951874850#1.54 951874850#1.57 951874850#1.59 951874850#1.62 -951874849#0 -951874848#0 -952002224#1 896786337#4 951951638#0 -952000397 -951951639#14 -951946794#0 951946792#1 896786337#8 896786337#8.8 -951887683 -951887684 -951887682#6 -951887682#5 -951887682#4 -951887682#3 951887692 -951887691#0 -951887682#0 -951887700#14 -951961240#3 -951961240#1 -951961245 951891772#0 -951891773 -951891771#0"/>
</vehicle>
<vehicle id = "veh4" type= "veh_passenger" depart="3605" >
<route edges =" 45342801#5 45342801#5.32 902433317#3 902433317#4 951368598#0 951381446#1 951421968#2 951421968#2.9 -45344271#34 -45344271#32 951368595#0 951368595#1 951368595#1.17 951368595#1.34 902433317#8 902433317#8.29 951368593#1 972507120#2 45342812#0 45342812#1 45342811#2 45342811#2.66 -45344273#22 -45344273#22.6 -45344273#22.18 -45344273#22.35 -45344273#21 -45344273#21.28 -45344273#19 45344322#0 -951440589 -951440589.14 -951440589.17 -951440589.19 -951440589.21 -951440589.37 -951440589.40 -951440589.41 -951440589.44 -951440589.46 45344322#2 -897252876#5 -897252876#5.20 45344320#2 45344320#3 45344320#4 45344320#5 45344320#5.26 45344320#6 45344320#6.8 45344320#7 45344320#7.38 45344320#7.55 45344320#7.60 45344320#7.63 45344320#7.67 45344320#7.80 45344320#7.86 950235691#2 950235691#2.4 950400189 -897172091#12 -897172091#10 -897172091#9 -897172091#8 -897172091#6 -897172091#5 -897172091#4 -897172091#3 897252883#0 897252883#0.24 897252883#1 45344297#0 45344297#0.22 -950400195#2 -950400195#2.10 950400194#0 950400194#1 -950235689#1 -950400192#0 -950400193#0 -950400195#0 -700254525#5 951141449 951141449.18 951141449.22 951141449.26 700254525#8 700254525#9 700254525#11 700254525#12 700254525#12.12 950235692#0 950235694#3 -950235703#3 -950455051#1 -950455051#1.51 -950455051#0 -950455051#0.3 -950455051#0.18 -950455051#0.33 950455048#1 950455048#1.12 950455048#1.23 950455048#1.41 950455048#3 950455048#3.5 -950235705#1 -950235705#1.35 -950235705#1.46 -950235705#1.61 -950235705#1.74 -950235705#1.98 -950235705#0 950238177#1 950238177#1.12 950238177#2 950238177#2.39 950238177#2.59 45344273#34 45344273#34.26 45344273#35 45344273#35.26 45344273#36 45344273#36.18 -950235701 -950235699#1 -950235699#0 -950235700#2 -950235697#3 950235695#1 950235695#2 -950235694#0 -950235700#0 -700254524#1 700254523 -700254525#0 -45344272#3 -45344272#3.16 -45344272#3.30 -45344272#3.79 -45344336#3 -45344336#2 -45344336#1 -45344336#0 45344284#3 -950238192#4 45344281#1 -950241866#8 -950241866#7 -950241866#7.13 -950394092 -950394093#0 -950241233#2 -950238192#2 -950238192#2.18 -950238192#2.21 -950392117#1 -950392117#0 -950392117#0.22 950241230#0 -950394089 -950394089.15 -950394089.18 -950394089.21 -950241229#2 -950241229#1 -950241229#0 -950241233#0 -45344280#9 -45344280#9.5 -45344280#8 -45344280#8.26 -45344280#7 950241224#0 950241224#0.21 950241224#0.25 950241224#0.29 950241224#0.34 950241224#0.39 950241224#0.43 950241224#0.53 950241224#1 950241224#1.3 950241224#1.8 950241224#1.32 950241224#1.51 950241224#1.66 950241224#1.78 950241224#2 950241224#3 700278832#5 700278832#5.53 45344280#12 45344284#0 -950553572 -950238193#0 45344280#14 45344280#14.13 45344280#15 45344283#5 45344283#6 45344283#6.72 45344283#6.89 45344283#6.131 45344283#7 45344283#7.36 45344283#8 950233988#1 950233988#1.76 950233988#2 950233988#2.43 950233988#2.55 -700278833#3 -700278833#2 -700278833#2.24 950241222#0 950392123#0 950392123#0.21 950392123#0.29 950392123#0.39 -950390889#3 -950390889#3.20 -950390889#3.34 -950390889#3.45 -950390889#1 -950390889#1.12 -950390889#1.34 -950390889#0 -950390889#0.4 -950390889#0.19 -950241223#2 -950241223#2.25 -950241223#2.40 -950241223#2.50 -950241223#2.61 -950241223#2.75 -950241223#1 -950241223#1.3 -950241223#1.20 -950241223#1.36 -950241223#0 -950241220#3 950390892#0 950390892#0.36 950390892#0.42 950390892#0.47 950390892#0.51 -950389244#0 -950389244#0.11 -897252879#13 -897172104 -45344275 -45343180#9 -45343180#8 -45343180#8.53 950241212#0 950241212#1 950241212#1.21 950241212#1.43 950241212#1.65 950241211#1 -950239856#2 -950239856#2.35 -950239856#1 -950239856#1.19 -950239856#0 -950239861#4 -950239861#4.75 -950239861#4.114 -950239861#4.121 -950239861#4.126 -950239861#4.132 950241214#0 950241217 950241217.46 950241217.50 950241217.54 950241217.58 950241218 950241218.22 671176477#5 671176477#6 671176477#6.45 671176477#7 671176477#7.19 -671176475#7 -671176475#6 950232595#0 -950278751#1 -950280674 -671176475#3 -671176475#3.2 -671176475#3.34 -671176475#3.40 -950239856#7 -950239856#7.18 -950285701#1 -950285701#0 -950276710#5 -950276710#5.9 -950276710#5.17 950239875#0 950239875#0.11 950239875#0.17 950239875#0.24 950239875#0.29 950239875#0.35 950239875#0.40 950239875#0.46 950239875#0.54 950239875#0.61 950239875#0.102 950239875#0.105 950239875#0.107 950239875#0.111 950239875#0.146 950239875#0.155 950239875#0.162 -950239871#3 -950239871#1 -950239871#1.37 -950282462 -950282462.26 -950282462.36 -950282462.45 -950282462.53 -950282462.60 -950282462.67 -950276710#1 -950276710#1.5 -950276710#1.13 -950276710#0 -950276710#0.10 -950276710#0.32 950239862#3 950239862#3.28 -950239863#1 -950239865 -950239865.53 -950239865.57 -950239865.62 -671176477#1 -671176478#0 -671176478#0.38 -671176478#0.42 -671176478#0.45 -671176478#0.50 -671176478#0.54 -897172102 -897172103 -671176472 897252879#17 897252879#18 897252879#18.162 897252879#19 897252879#19.29 897252879#20 950318425#0 950318424#0 -951440585 -951440585.7 -951440585.12 -951440585.20 -951440585.29 -951440585.32 -951440585.35 -951440585.38 -951440585.40 -951440585.42 -951440585.45 -951440585.50 -951440585.53 -951440585.57 -951440585.61 897252879#22 897252879#23 896892972 896892973 896892973.27 896892973.31 -896786335#50 -896892981#13 -896892981#13.5 -896892981#13.13 -951349911#1 -951349910#1 -951349910#1.29 951354767 -896892981#10 -896892981#10.8 -896892981#9 -896892981#8 -896892981#8.18 -896892981#8.50 -896892981#8.78 -951358829#1 -951358829#1.27 -951358829#1.80 950260764#0 950260764#0.14 950260764#0.20 950260764#0.27 950260764#0.78 950260764#0.85 950260764#0.90 950260764#0.94 950260764#0.98 950260764#1 950260764#2 950260764#3 -950233986#2 951132945#0 950233985 -896893025#14 -896893025#14.20 -950260765#10 951998783#0 -876614662#0 951998787#3 -950260765#7 -950260765#7.3 -950260765#6 -950260765#5 -950260765#5.30 -950260765#5.33 -952216032#1 -952216032#0 -952216032#0.13 952213575#9 952213575#9.39 952213575#9.47 952213575#9.52 952213575#9.55 952213575#9.60 -951998789 -951998789.89 -951998789.91 -951998789.95 -951998789.98 -951998787#0 -951998787#0.10 -951998787#0.14 -951998787#0.18 -951998787#0.21 951998783#2 -951998785#1 -951998790 -896893023#6 -896893023#6.20 -896893023#6.24 -896893023#6.27 -896893023#6.30 -896893023#5 -896893023#5.8 -896893023#4 -896893023#4.15 -896893023#3 -896893023#3.6 -896893023#3.28 -896893023#3.33 -896893023#2 -896893023#2.10 -896893023#2.21 -896893023#2.33 896893024#1 -951998773 -951998773.27 -951998773.31 -951998773.36 -951998773.40 -896786297#11 -896786297#9 -896786297#9.54 -896786297#8 -951998767#0 -896892988#0 951998768#0 896893025#1 896893025#1.15 896893025#2 896893025#2.35 877388646#0 877388646#0.26 896892989#5 -951998765#0 -951998765#0.3 -951998765#0.13 -951998765#0.18 -951998765#0.24 896892987#3 -951998764#0 -951998764#0.32 -951998764#0.41 -951998764#0.52 896893025#7 896893025#7.15 896892986#0 896892986#1 896892986#1.7 896892986#1.21 896892986#2 896892986#2.44 896892986#2.82 896892986#3 -896892983#8 -876614662#5 896892984#0 896892984#0.37 896892984#1 -896892985#2 -896892985#2.25 -896892985#2.78 951349909#0 951998762#1 896893025#11 896893025#11.31 876614662#2 876614662#3 876614662#3.4 951349909#2 951349907#2 951349907#2.59 951349907#2.68 951349907#2.75 951349907#2.88 951349907#2.101 951354775 -951354774#0 -951354778 -951354778.19 -951354778.26 -951354778.31 -951354778.36 -951354778.40 -951354778.49 951349909#5 951349909#5.10 951349909#6 951349909#6.57 950233986#4 950233986#4.24 950233986#4.31 950233986#4.37 950233986#4.46 950233986#4.70 950233986#4.73 950233986#4.74 950233986#4.76 951350965 -951350966#1 -951350966#1.7 -951350966#0 -951350967#0 -951350967#0.15 950233986#8 950233986#8.24 950233986#10 950233986#10.3 950233986#10.51 896892981#5 951349912#0 951349912#0.14 951349912#0.18 951349912#0.25 951349912#0.33 951349912#0.69 951349912#0.72 951349912#0.74 951349912#0.76 951349912#1 951349912#1.12 951349912#1.14 951349912#1.16 951349912#1.19 -896786335#44 -896786335#44.9 -896786335#44.71 -896786335#43 -896786335#42 -896786335#42.22 -896786335#41 -896786335#40 -896786335#39 -896786335#39.27 -896786335#37 -896786335#36 -896786248#1 -896786248#1.14 -896786248#1.27 -896786248#0 -896786248#0.20 -896786248#0.52 -896786248#0.67 -896786248#0.105 -896786248#0.138 -896786248#0.216 -896786248#0.226 -45378649#7 -45378649#7.4 -45378649#5 -45378649#5.24 -45378649#5.57 -45378649#5.68 951354762#0 951354762#0.9 951354762#0.12 951354762#0.15 951354762#0.18 951354762#0.94 951354762#0.96 951354762#0.97 951354762#0.99 951354762#0.100 951354762#0.102 951354762#0.106 951354762#0.107 951354762#0.109 951354762#0.110 951354762#0.112 951354762#0.127 951354762#0.129 951354762#1 951354762#1.1 951354762#1.3 951354762#1.20 896786263#1 -951354764#0 -951354764#0.33 -951354764#0.44 -951354764#0.55 -951354764#0.67 951354765#0 -951354763#0 -45378649#1 -45378649#0 -45378649#0.9 -896893028#5 -896893028#4 -896893028#4.22 -896893028#3 -896893028#3.26 -896893028#1 -896893028#1.14 -896893028#0 -896893028#0.19 896786297#3 896893027#0 896893027#0.20 896893027#0.88 951998772 -877388646#3 -896893026#2 -896893026#1 -896893026#1.16 -896893026#1.19 -896893026#1.21 -896893026#1.33 -896893026#1.37 -896893026#1.40 -896893026#0 -896786297#6 -896786297#6.39 -896786297#5 -896786297#5.15 -896893005#4 896893015#0 896893015#1 896893015#1.26 896893015#2 896893015#3 -896893018#0 877388728#14 -951995494#1 -951995491#2 951995493#0 951354763#5 -951995492#0 -951995491#0 896786266#13 896786266#13.14 -896786335#21 -896786335#21.41 -909024249 -909024249.19 -909024249.70 909024250#1 909024250#2 909024250#4 -909024245 -909024245.13 -909024245.37 -909024245.57 -896786335#16 -896786335#16.7 -896786335#15 45378665#0 45378665#0.11 45378665#0.47 909024239#0 909024239#1 909024239#1.17 909024239#2 909024239#2.40 877398366#3 -951995475#3 -951995475#2 896786292#0 896786292#0.10 896786291#0 896786291#0.19 -896786288#0 -896786288#0.20 -896786288#0.42 -877398520#0 -877398520#0.16 -904371459 -904371459.17 -904371459.33 904371460#2 904371460#2.34 904371460#4 904371460#4.17 904371460#4.32 904371460#5 -877396860#3 -951975994 -896786324#1 -896786324#0 -896786324#0.19 -896786324#0.132 -896786324#0.177 -877395784#19 -877395784#17 -877395784#17.8 -877395784#17.24 -951946803#2 -951946803#1 -951946803#1.55 -951946803#1.59 -951946803#1.61 -951946803#1.64 951946795#1 951946795#2 951946795#3 -951946800#1 951951639#7 -951973430#1 -951951638#4 951946798#1 951951639#10 951951639#11 951946796#0 951946804 951946804.28 951946804.31 951946804.34 951946804.37 951946795#11 951946795#11.34 951946795#11.40 951946795#11.45 896786337#10 896786337#10.21 -951887700#20 671756019#0 -951961251#1 -951961251#0 -876509484#7 -876509484#7.6 -876509484#7.25 -876509484#6 -876509484#6.3 -876509484#6.8 -876509484#6.12 -876509484#6.15 951878264#0 951878264#0.74 951878264#2 -951878263#3 -951878266#4 -951878266#4.37 -951878266#2 -951878266#1 -951878266#1.39 -951878266#1.47"/>
</vehicle>
<vehicle id = "veh5" type= "veh_passenger" depart="3605" >
<route edges =" 951370989 951370989.40 951370989.47 951370989.53 951370989.56 951370989.62 951370989.64 951370989.67 -902433320#1 -902433320#0 902433321#2 45342799#21 45342809#0 951368600#0 -951368603#1 951368601#0 951368601#1 -45342797#2 -45342797#1 -45342797#0 45342834#2 45342809#3 45342809#4 45342809#5 45342809#6 45342839#0 45342839#1 -45342840#2 -45342840#1 -45342840#1.23 -45342840#1.27 -45342840#1.31 -45342840#1.34 -45342840#1.38 45342810#3 45342810#4 45342810#4.21 45342810#5 -973399407#2 -45342830#1 -45342830#0 45342810#8 45342810#8.39 951366785 -951366784 -973399407#0 -44740885#13 -44740885#13.4 -44740885#13.21 -44740885#13.24 -44740885#13.27 -44740885#13.31 -44740885#13.35 -44740885#13.56 -44740885#13.59 -44740885#13.62 -44740885#12 -44740885#12.2 -44740885#12.5 45342829 45342827#1 -45342826#0 -45342825#0 -45342809#10 -45342809#10.53 -45342809#9 -44740885#9 -44740885#9.34 -44740885#8 -45342841 -45342802#1 44740902#13 -44740957#2 -44740957#1 -951417477 -45342843#1 45342844 45342808#1 45342808#1.36 45342804#0 45342804#1 45342804#2 45342832#0 45342832#1 -45342822#0 45342831#3 45342809#12 -45342805#4 951417480#0 951417480#1 -951417482#1 -951417482#0 -45342805#0 -45342805#0.29 897252872 897252872.36 -45342809#16 -45342809#15 45342824#0 45342833#3 -951366786 45342824#3 45342823#2 45342828#1 45342828#1.100 -951384596#1 -951384596#1.24 -951384596#1.31 -951384596#1.36 -951384596#1.46 -951384596#1.54 -951384596#1.60 -951384596#1.72 -951384596#1.107 -951417467 -951417467.14 -951417467.15 -951417467.17 -951417467.18 -951417467.21 -951417467.23 -951417467.24 -951417467.25 -951404491 -951404491.16 -951404491.28 -951404491.40 -951404491.51 -951384599#0 -897252868#5 -897252869#2 897252861 -897252860#0 -897252868#2 -897252868#1 -897252868#1.11 -897252868#1.30 -897252868#0 -897252868#0.12 -897252868#0.33 -897252868#0.71 897252863#6 897252863#7 897252863#8 897252863#9 897252863#9.10 897252862#1 897252862#1.24 897252862#2 897252862#2.16 -897252867#1 -897252867#1.8 -951439195 -700249213#0 45344314#3 -45344315#2 -45344315#1 -45344315#1.25 -45344315#0 -45344315#0.31 700249213#11 45342808#10 45342808#11 45342808#11.24 45342808#12 -897252871 -897252870 -45344310#2 -45378639#12 -45378639#12.97 -45378639#11 -45378639#10 -951404481 -951404484#4 -951404484#4.8 -951404484#4.11 -951404484#4.13 -951404484#4.15 -951404484#3 -951404484#3.5 -951404484#3.9 -951404484#3.14 -951404484#3.25 -951404484#3.32 -951404484#2 -951404484#2.19 -951404484#2.23 -951404484#2.26 -951404484#2.29 -951404476 -951404476.16 -951404476.32 -951404476.50 -951404476.59 -951404476.68 -951404476.84 -951404476.93 -951404476.101 -951404476.106 -951404476.113 971495602#7 971495602#7.32 971495602#7.56 971495602#8 971495602#8.24 971495602#8.86 -313316104#6 -45378650#5 -45378650#5.11 -45378650#4 45378645#0 45378645#0.44 45378645#1 45378645#1.23 45378645#1.76 45378647#3 45378646#3 -908846598#1 -908846598#1.20 -908846598#1.40 -908846598#1.44 -908846598#1.67 -908846598#1.96 -908846598#1.126 908846589#1 908846589#1.7 908846589#1.14 -908846588 -908846588.28 -908846588.67 908560901#1 908560901#1.6 908560901#2 908560901#2.40 908560901#3 908560901#4 908560901#4.8 951435501 951435501.56 -45378647#0 -45378647#0.12 -45378647#0.51 908560901#6 908560901#6.50 908560901#6.91 908560901#6.131 908846596#0 908846596#0.25 908846596#1 45378650#1 -908846593 -908846593.73 908560901#8 908560901#8.23 908560901#8.56 -313316104#0 -313316082 -45378649#12 896786296#0 896786296#1 896786296#1.36 896786296#2 896786296#2.35 -896786254#1 -896786254#1.26 951355294#1 951355294#1.19 951355294#1.22 951355294#1.23 951355294#1.24 951355294#1.25 951355294#1.27 951355294#1.28 951355294#1.31 951355294#1.41 951355294#1.42 951355294#1.43 951355294#1.44 951355294#1.45 951355294#1.47 -896786258#2 -896786258#2.22 -896786256 -896786256.31 -896786256.68 -896786256.122 -896786260#4 -896786260#4.11 896786257#1 896786266#5 -896786260#0 -896786260#0.52 896786257#4 909024248 909024248.50 909024287#0 909024287#0.8 909024287#0.15 909024287#0.65 951995477 951995477.33 951995477.41 45378665#7 45378665#7.25 45378665#7.48 45378665#8 -896786283#4 -896786283#4.15 -896786283#4.56 -896786283#3 -896786283#3.11 909024287#3 909024287#3.52 -876614861#2 -876614861#1 -876614861#0 -876614861#0.36 -877396033#0 -671191680#15 -671191680#15.78 -877398366#12 -896786284#0 -896786284#0.50 877396033#2 896786283#0 896786283#0.10 896786283#1 896786283#1.25 896786283#1.45 -909024289#4 -909024289#3 -909024289#3.21 -909024289#2 -909024288#1 -909024288#0 877396033#7 877396033#7.17 877396033#7.62 877396033#7.73 -909024289#0 -909024289#0.2 -909024289#0.5 -909024289#0.10 896786293#2 896786293#2.8 896786293#2.28 896786293#2.36 896786293#2.45 896786293#2.48 896786293#2.52 -45378665#2 -45378665#2.36 -45378665#1 -45378665#0 -45378665#0.39 -45378665#0.75 -896786300#3 -896786300#3.27 -896893012#1 -896893012#0 -896893012#0.11 -896786303#4 -896786303#4.22 -896786303#3 -896786303#2 -896786303#2.23 951983587#9 877398366#0 877398366#0.11 -909024237#0 -951983583#0 -951983583#0.24 -951983583#0.28 -951983583#0.32 -951983583#0.38 -877396860#0 -877396860#0.8 -877396860#0.28 -896786311#13 -896786311#13.20 896786303#0 951983586#0 951983588#0 951983589#0 896786304#8 896786304#8.15 -877398739#3 -951983590 951983591 -951983587#0 -951983587#0.39 -951983587#0.45 -951983587#0.51 -951983587#0.56 -896786311#8 -896786311#7 -896786311#6 -896786311#6.24 951983602 -951930672#0 -951930671#2 -951930671#2.8 -951930671#1 -951930671#0 -951930671#0.25 -951930671#0.32 -951930671#0.42 877396172#5 896786320#1 951976009#0 -951976006#2 -951976006#1 -951976008 896786319#2 -896786315#4 -896786315#2 -896786316#3 -896786316#2 -896786316#1 -896786316#1.33 -896786314 896786313#2 896786313#2.7 896786313#3 896786313#3.51 896786313#3.88 896786313#3.110 896786313#3.151 896786313#3.164 896786313#3.186 896786313#3.223 896786313#3.237 896786313#3.246 896786313#3.253 -896786312#1 -896786312#1.17 -896786312#1.24 -896786312#0 -896786312#0.11 -896786312#0.35 -896786312#0.60 -896786312#0.135 -896786311#2 -951930661#4 -951930661#3 -951930661#3.14 -951930661#2 -951930661#0 877395784#7 -896786312#3 -896786312#3.38 951930662#1 951930662#1.184 -951930663#0 -877395784#11 -877395784#11.58 -877395784#10 -877395784#10.22 -877395784#10.43 951946815#0 -951946826 951946825#1 -951946816#4 -951946816#2 -951946816#1 -951946816#0 951946815#5 951946832 -896786337#16 -951946812#2 -951946812#1 -951946813 951946810#1 951946810#2 -896786337#14 -896786337#14.40 -896786337#14.111 -952365020 -952365021 -951878231#2 951868619#0 951868620#0 -951868611#1 -951878231#0 951951645 -951951643#3 -951951646 -951951642#2 -876509484#2 -951951643#1 951951648#0 951951649 951878263#7 951878263#8 951878230#4 -951891772#4 -951891772#3 -951891772#2 -951891774 951891771#2 951878270#2 951878270#3 951930614 -951878269#7 -951891764#4 -951891764#2 -951891764#1 -951891764#0 951887660#2 951887660#3 -951891765#3 -951891765#2 -951891765#1 -951891765#0 -951878269#5 -951878269#4 951878272#0 -951887656#0 -951887655#3 -951887655#2 951887657 951878272#4 951878272#5 904196454#2 904196454#4 904196454#5 904196454#6 -951887665 -951961236#0 -951887700#4 904196454#8 904196454#8.42 904196452#6 904196452#7 -951887672#4 -951887671#1 -951887671#0 -951887668#0 951887669#1 951887669#2 -951887672#2 951887667#7 -904196453#11 951887674#0 951887674#1 951887674#1.3 951887674#1.7 951887674#2 951887674#3 951887674#3.83 951887674#3.90 951887674#3.96 951887674#3.101 951887674#3.111 951887674#3.114 951887674#3.118 -951887700#7 -951887700#7.3 -951887700#7.7 951887663#0 951887663#1 951887663#2 951887661#3 951878266#0"/>
</vehicle>
<vehicle id = "veh6" type= "veh_passenger" depart="7210" >
<route edges =" -45342801#4 -45342801#3 -45342801#2 -45342801#1 -45342801#0 45342798#2 45342798#3 45342798#4 45342818#0 -45342817#2 -45342803#7 951370984#0 -45342816#0 -45342817#0 45342813#1 951370984#2 44740902#10 44740902#10.9 44740902#11 -44740885#6 -44740885#5 -44740885#5.33 -44740885#4 671399058#0 671399058#1 671399058#2 44740901#4 44740901#5 -44740891#4 974189220#1 -44740896#2 -44740896#1 -951417473 44740957#7 44740957#8 974189220#3 951417475#1 -671399049#1 -671399049#0 -671399051#0 44740942#2 44740942#2.58 -874839172#0 -44740943 -313316091#20 -313316091#19 -313316091#18 -313316091#18.26 -313316091#17 44740922#0 -672215965#1 672215964 951438760#1 -44740929#4 -44740929#3 -44740929#2 -44740929#1 44740967#4 44740922#5 44740922#5.74 44740926#0 -44740923#1 -44740989#0 44740925#1 -44740926#4 -951358803 44740955#1 951358804 -44740926#2 44740924#0 44740924#1 44740927#16 44740923#3 44740953#2 44740940#0 44740945#0 44740945#1 -44739167#13 44740953#4 44740953#5 951358801 44740927#11 951358802 951358805#1 -44740928#1 -44740928#0 -44740928#0.75 -44740930#6 -44739163#14 102277232#3 44739156#13 44739156#14 44740981#0 44740983#0 -44740985#1 44740987 44740927#8 -951358800#1 -951358800#0 -44740918#1 -44740918#0 44740920#6 44740920#8 -313316091#0 -313316091#0.27 -313316091#0.72 -313316091#0.80 45340579#18 45340579#18.164 44740932#0 909019790#0 909019790#0.39 909019790#1 -909019791#0 45340579#20 45340579#20.80 955813297#0 -909019772#1 -909019772#1.10 -909019772#1.26 -909019772#1.29 -909019772#1.34 44740916#2 44740916#2.8 44740916#2.32 -909019775 -909019775.30 -909019776#2 -909019776#2.33 -909019776#2.36 -909019776#2.39 -909019776#2.41 -909019776#2.74 44740916#4 44740916#4.18 44740916#6 44740916#7 44740916#8 44740916#9 44740916#9.64 44740916#11 -971495601#6 -971495601#5 -45378660#1 -45378660#1.21 -45378660#1.52 -45378660#1.88 -45378660#1.126 -908560900#3 951346855#0 951346855#0.40 951346855#0.55 -951346854 -951346854.30 -951346854.33 -951346854.34 -951346854.36 -951346854.39 -951346854.40 -951346854.42 -951346854.50 -951346854.52 -951346854.54 -951346854.56 -951346854.59 -951346854.61 -951346854.62 -951346854.64 -951346854.65 -951346854.67 -951346854.69 -951346854.101 -908560901#21 -908560901#21.18 -908560901#21.74 -908560901#20 -908560901#20.10 -908560901#20.61 -908560901#20.115 -908560901#19 -908560901#19.77 -908560901#19.104 -896786299#0 -896786298 -45378665#19 -45378665#18 -45378665#17 -45378665#17.13 -45378665#17.39 -45378665#17.57 -45378665#16 896786282#0 896786282#0.41 896786282#2 896786282#2.23 896786282#2.28 896786282#2.32 896786273#0 896786280#0 896786280#0.19 896786280#0.47 896786280#1 896786280#2 909024257 909024257.36 909024257.92 -896786275#3 -896786271#0 -896786272#0 896786279#1 896786279#2 896786279#2.21 896786269#5 896786269#6 896786269#6.25 896786269#6.71 896786269#7 -896786270#1 -896786270#0 896786271#2 896786271#2.11 896786295#10 909024280#0 -909024278#0 -909024278#0.26 -909024278#0.99 -909024279#0 -909024279#0.11 -896786295#8 -896786295#8.13 -896786295#8.15 -896786295#6 -896786295#6.9 -896786295#5 -896786295#4 -896786295#3 -896786295#3.13 951347813#0 951347813#0.59 951347813#1 951347813#1.31 951347813#1.37 -909024258#0 909024259#2 909024259#2.24 909024259#2.43 909024259#2.69 909024259#2.80 896786296#15 896786296#15.3 -951346848#1 -951346848#0 -951346848#0.9 -951346848#0.18 -951346848#0.28 -951346848#0.36 -909024276#1 -909024276#0 -909024276#0.55 896786296#18 896786296#18.4 896786296#18.17 -44739144#24 903953326#0 903953327 903953327.24 903953327.78 903953327.89 -903953334#8 -903953334#8.6 -903953334#8.17 -903953334#8.53 -903953325#4 -903953325#3 -903953325#2 -903953325#2.18 -903953325#1 903953324#0 903953324#1 903953324#1.22 -44739144#18 -877398366#21 952002225#0 909024265#3 671960104#0 671960104#1 671960102 -671960101#10 44740913#4 44740913#5 -877396860#22 -877396860#21 -904371477 -904371477.66 904371478#2 904371478#2.43 44739144#10 -909778559#1 672815156#0 44740912#7 -904286388#7 -904286388#7.24 -904286388#6 -904286388#6.28 904371479#0 904371479#0.10 904371479#0.23 904371479#0.35 904371479#1 904371479#1.2 904371479#1.8 904371479#1.27 904371479#1.58 -904371474#3 -904371474#2 -904371474#1 -904371474#0 -904371474#0.12 904286383#0 904286383#1 904286383#2 904286380#1 904286380#1.17 904286380#1.44 877396860#13 896786290#3 896786290#4 896786290#4.40 -909024293#3 -909024293#2 -909024293#1 -909024293#1.14 -909024293#1.28 -909024293#0 909024294#1 877398366#18 896786289#2 702673217#3 909024268#0 909024268#0.30 -909024267 -909024267.44 702673217#5 -896786294#0 -896786294#0.13 -877398366#16 896786277#0 896786278#0 896786278#0.39 896786278#1 896786267#2 -904286382#4 -904286382#4.34 -904286376 -904286377#0 904286378#1 -904286382#2 -877396860#11 -877396860#10 -877396860#9 -877396860#9.4 -904371462#0 904371463#1 904371463#1.15 -671191680#11 -671191680#9 -671191680#8 -671191680#6 -896786326#1 -896786327#1 -896786327#1.48 -896786327#1.55 -896786327#1.60 -896786327#1.64 -896786327#1.68 -896786327#1.74 -896786327#1.124 -896786327#1.170 -896786327#1.205 -896786327#1.211 -896786327#0 877395784#22 877395784#22.56 904371492#0 904371492#0.68 951973474#0 951973474#1 -951973473#0 951973472#1 -904371491 904286385#3 -951973457 -904371492#4 951973476#0 951973476#1 951973471#3 951973471#4 -951973470#0 904371490#4 904286385#5 904286385#5.42 -951973468#0 904371489#2 -904371487#0 904371486#2 904371486#4 904371486#4.3 -951973462#3 -951973462#3.3 -951973462#3.5 -951973462#3.8 -951973462#3.10 -951973462#3.15 -951973462#3.18 -951973462#3.21 -951973462#3.25 -951973462#3.31 -951973462#3.34 -951973462#3.38 -951973462#3.47 -951973462#3.53 -951973462#3.58 -951973462#3.69 -951973462#3.74 -951973462#3.79 -951973462#2 -951973460#1 -951973460#0 904371493#2 904371493#3 -671191681#2 -671191681#1 -951973436#2 -951973436#0 -951973436#0.3 -951973436#0.8 -877395784#25 -877395784#25.55 -952002224#7 -952002224#7.17 -952002224#7.71 -952002224#6 -952002224#5 -952002224#5.5 951973430#0 -951951638#4 -951951638#3 -951951638#2 -951951638#1 -951951638#0 896786337#5 896786337#5.11 896786337#6 896786337#7 896786337#8 896786337#8.8 -951887683 -951887684 -951887682#6 951887695#5 -951887700#19 -951887700#18 -951887700#17 -951887700#17.17 -951887689 -951887688#0 -951887687#0 -951887687#0.5 -951887682#3 -951887682#2 -951887682#2.37 -951887682#1 -951887682#1.2 -951887682#1.5 -951887682#0 -951961243 -951961242#0 -951961240#1 -951961245 951891772#0 -951891773 -951891771#0"/>
</vehicle>
<vehicle id = "veh7" type= "veh_passenger" depart="7210" >
<route edges =" 45342801#5 45342801#5.32 902433317#3 951421968#0 951421968#1 951421968#1.20 951421968#2 951421968#2.9 -45344271#34 -951368598#1 -951368598#0 902433317#6 902433317#7 -951368596 45342799#27 45342799#27.15 45342799#27.20 45342799#27.25 45342799#27.36 972507120#0 972507120#2 45342812#0 45342812#1 45342811#2 45342811#2.66 45344273#23 45344273#23.11 45344273#24 -897252873#2 951379889 951379889.24 951379889.29 951379889.37 951379889.42 951379889.48 -951379890#0 -951379890#0.11 -951379890#0.26 -951379890#0.32 -951379890#0.35 -951379890#0.37 -951379890#0.41 -951379890#0.82 -951379890#0.84 -951379890#0.86 -951379890#0.88 -951379890#0.89 -951379890#0.91 -951379890#0.93 45344320#1 45344320#2 -45344329#7 -45344329#6 -951381435 -45344331#2 -45344331#1 952274660 952274660.29 952274660.31 952274660.34 951404486#1 -45344326#0 -45344326#0.20 -45344326#0.39 -45344330#0 -902433295#3 -45344329#3 -45344329#2 897252884#0 897252884#1 897252884#1.14 897252884#1.26 897252884#1.51 897252884#1.72 897252884#1.89 897252884#1.109 897252884#1.138 897252884#1.166 897252883#0 897252883#0.24 897252883#1 -699875130#1 -699875133 897172091#8 699875131#0 699875131#1 699875131#2 -950400194#2 -950400194#1 -950400193#1 -950400193#0 -950400195#0 700254525#6 950235689#0 950400192#1 699875131#4 700254525#9 700254525#11 700254525#12 700254525#12.12 950235692#0 950235692#1 950235692#2 950235697#0 950732875#0 -950235702 950235695#2 950235695#3 -45344336#5 -45344336#4 -45344336#3 -45344336#2 950553578#1 950553577#0 950553577#0.25 950553577#1 950553577#1.2 950553577#1.9 950553577#1.16 950553577#1.22 950553577#1.27 950553577#1.34 950553577#1.44 950553577#2 -45344282#1 -45344282#0 -45344272#0 -897252880#9 950238178#0 950238178#1 950238182#0 950238182#1 950238182#1.37 950238182#1.47 950238182#1.55 950780323 950780323.8 950780323.15 950780323.22 950780323.29 -950238184#2 -950238184#2.9 -950238184#2.19 -950238184#2.27 -950780324#0 -950780324#0.30 -950238181#0 -950238180#4 -950238180#4.38 -950238180#3 -950238180#3.35 -950238180#3.57 -950238180#3.61 -950238180#3.64 -950238180#2 -950238180#1 -950238181#3 -950238181#3.14 -950238181#3.23 -950238181#3.29 -950238181#3.37 -950238181#3.46 950238182#3 45344278#4 45344278#5 -45344271#15 -45344271#13 -45344271#13.24 -45344271#12 950806850#0 950806850#1 -45344277#8 -45344277#7 -45344277#6 -950806859 -950806859.27 -950806859.38 -950235722#0 -950235722#0.6 -950235722#0.12 -950806855#3 -45344277#1 -950235726#1 -950235726#0 -950235727#6 -950806854 950806855#1 950806855#1.3 950806855#1.8 950235725#2 950235725#3 950235725#4 950806852#2 950806852#2.26 950806852#2.32 950806852#2.37 950806852#2.47 950806852#2.57 -950235727#2 -950235727#2.16 -950235727#1 -950235727#1.45 -897252880#2 -897252880#2.15 950241845#1 950641816#5 950641816#6 -950872165#4 -950641807#1 -950641807#1.20 -950641807#1.25 -950641807#1.30 -950641807#1.33 -950641807#1.38 -950641807#1.42 -950641807#1.47 950235729#2 950235729#3 950235730#1 -950872165#1 -950732877 -950732877.38 -950732877.41 -950732877.44 -950732877.52 -950732877.56 -950732877.58 950235729#5 -45344285#4 950641812#0 -950641811#1 -950641811#1.17 -950641811#1.24 -950641811#1.33 -950641811#0 -950641811#0.3 -950641811#0.9 -950235732#3 -950235732#2 950235733#1 950641812#3 950641809#0 -950641810 -950641810.14 -950641810.18 -950641810.22 -950641810.27 -950235732#0 950641816#10 950641816#11 950641816#12 950641816#12.39 -950238188#4 -950238188#3 -950241847#7 -950241847#7.19 -950241847#6 -950241847#5 -950241847#5.4 -950241847#5.12 -950241847#5.18 -950241847#5.23 -950241847#4 950238186#1 950238186#2 -45344271#6 -45344271#6.46 45344284#10 950241846#0 951043903 950241823#3 45344284#12 45344284#12.58 950872160#0 950872160#1 950872160#1.50 950872160#1.69 950872160#2 950872160#2.4 950872160#3 950872160#4 950872160#4.25 950872160#5 -950241834#3 -950929127#6 950241832#1 950241821#3 950241821#4 -950241828#0 -950929127#3 -950929127#3.15 -950929127#2 -950929127#1 950241823#5 -950241818#2 -950241818#1 -950241818#1.42 -950241818#0 45344271#4 -902433322#2 950241847#2 -45344284#8 -45344284#7 -45344284#7.68 -45344284#7.129 45344282#4 45344282#5 45344282#5.41 45344282#5.76 950241865#0 -950241866#5 -950241866#4 -950241866#3 -950241866#3.32 -950241866#3.36 -950241866#3.40 -950394091#1 -950394091#0 -950394091#0.13 -950394091#0.19 -950394091#0.26 950241869#2 950241869#2.5 -950241865#2 950394090#2 950394090#2.13 950394090#2.18 -950394093#0 950241233#3 950241866#8 950241866#9 -45344284#5 -45344284#4 -950238192#4 -45344281#0 45344280#12 45344280#13 45344280#14 45344280#14.13 45344280#15 45344283#5 -950553582#2 -950553582#2.27 950553580#0 950553579 950553579.70 950553579.75 950553579.82 -950553581#0 -950553581#0.8 -950553581#0.15 -950553582#0 -950553582#0.6 950233989#1 950233989#1.12 950233989#1.21 950318421#0 950318421#0.10 950318421#0.18 950318421#0.29 950318421#0.39 -950318420 -950318420.14 -950318420.24 -950318420.38 -950318420.55 -950318420.72 -950318420.83 -950318420.94 45344283#8 -950233988#0 45344272#5 45344272#6 45344272#7 45344272#7.21 45344272#7.41 950389249#0 950389249#0.37 950389249#0.40 950389248 950389248.21 950389248.25 950389248.29 950389248.34 950389248.56 950389248.59 950389248.62 950389248.66 -950389249#3 -950389249#3.3 -950389249#3.22 -950389249#3.25 950389246 950389246.10 950389246.16 950389246.23 950389247#2 950389247#2.5 950389247#2.13 897252850#2 897252850#2.5 897252850#2.24 -897252849 -897252852#3 -897252852#1 -897252852#1.36 897252851 -45344304#0 45344272#10 45344272#10.38 45344272#11 45344272#11.35 951384610#0 951404495 702632122#0 702632122#0.6 702632122#0.10 702632122#0.14 702632122#0.18 702632122#0.49 702632122#0.55 702632122#0.60 702632122#0.66 702632122#0.72 702632122#0.90 702632122#0.93 702632122#0.96 702632122#0.98 702632122#0.100 702632122#0.108 702632122#0.114 702632122#0.117 702632122#0.121 702632122#0.128 702632122#1 702632122#1.17 702632122#1.20 702632122#1.23 702632122#1.27 702632122#1.31 702632122#1.38 -951384601#1 951384600 -702632123#2 951384608#0 951384608#0.29 951384608#0.31 951384608#0.35 951384608#0.38 951384608#1 951384608#1.3 951384608#1.6 951384608#1.9 951384608#1.13 951384608#1.16 -45344286#7 -45344286#6 -45344286#6.52 -45344286#4 -45344286#4.11 -45344286#3 -45344286#3.9 -45344286#3.30 -45344286#3.45 -45344286#2 -45344286#2.12 -45344286#2.42 -45344286#1 -45344286#1.19 -45344286#0 -45344307 -951441961 971495602#10 971495602#10.24 971495602#10.91 971495602#10.136 971495602#10.205 971495602#10.291 971495602#10.337 971495602#10.378 971495602#11 971495602#12 971495602#12.26 971495602#12.77 951442813 951442812#0 -896786335#50 -896786335#49 -896786247#9 -896786247#9.8 -896786247#9.17 -896786247#9.75 -896786247#9.157 -896786247#8 -896786247#7 -896786247#7.2 -908869249#2 -908869249#2.8 -908869249#2.14 -908869249#2.28 -908869249#1 -908869249#0 -908869249#0.10 -896892977#2 908869250#5 -908869248#1 -908869248#1.4 -908869248#1.6 -908869248#1.9 -908869248#1.11 -908869248#1.19 -951358827#2 -951358826 -951358826.10 -951358826.13 -951358826.16 -951358826.19 -951358826.36 -951358826.40 -951358826.44 -951358826.49 -896786335#42 -896786335#42.22 -896786335#41 908869237 908869237.8 908869237.20 908869237.48 -908869250#3 -908869250#2 -908869250#2.29 -908869250#2.76 -908869250#2.143 908869244#0 -908869233 -908869234#0 -908869234#0.11 -908869250#0 -908869250#0.11 -908869250#0.41 -45378649#10 -45378649#10.20 -45378649#9 -45378649#9.7 -45378649#7 -45378649#7.4 908869241#0 908869241#0.15 908869241#0.77 -908869240#0 -908869240#0.1 -908869240#0.4 -908869240#0.7 -908869252#0 -908869252#0.17 -896786335#30 -896893028#5 951354771#0 -951355290 -951355290.28 -951355290.30 -951355290.31 -951355290.32 -951355290.33 -896893028#3 -896893028#3.26 -896893028#1 -896893028#1.14 896893014#0 896893014#0.49 896893015#1 896893015#1.26 -896893016#1 896893017#0 -896893018#1 -896893018#1.27 -896893018#0 877388728#14 896786335#26 951358823 951358823.10 951358823.15 951358823.20 951358823.26 -951354763#2 951358824#1 896786253 896786253.47 896786253.111 896786263#4 -951358821#2 -951358821#2.84 -951358821#2.87 -951358821#2.89 -951358821#2.91 -951358821#2.98 -951358821#1 -951358822#1 -951358822#1.32 -951358822#1.34 -951358822#1.36 -951358822#1.37 -951358822#1.39 -951358822#1.41 -951358822#1.61 -951358822#1.65 -951358822#1.67 -951358822#1.69 -951358822#1.71 -951358822#1.74 -951358822#1.88 -951358822#0 -951358822#0.4 -951358822#0.8 -951358822#0.13 -951995493#1 951354763#5 951995492#1 -896786265#0 909024253#0 909024253#1 909024253#1.45 -896786293#7 -909024242 951995490#1 951995490#1.10 951995490#1.14 951995490#1.17 951995490#1.20 909024250#2 909024250#4 909024250#5 909024250#6 909024239#0 909024239#1 909024239#1.17 909024239#2 909024239#2.40 -951983585 877396860#3 -904371460#5 -951995475#4 877398366#4 -904371457 -904371460#2 -904371460#2.2 -904371460#1 951995474 -877396860#7 904371461 904371461.86 904371461.132 904371461.161 904371461.165 904371461.167 904371461.172 904371458#1 904371465#0 904371465#1 904371465#2 -904371467#0 -896786328#2 -896786328#2.49 896786325#2 -896786324#1 -896786324#0 -896786324#0.19 -896786324#0.132 -896786324#0.177 -877395784#19 -951946816#15 -951946816#14 -951946803#1 -951946803#1.55 -951946803#1.59 -951946803#1.61 -951946803#1.64 951946795#1 -951946802 951951639#3 951951639#4 951951639#6 -951946800#0 -951951638#5 951973430#1 951951639#8 951946799 951946795#6 951946795#7 -951946797 951951639#11 951946796#0 951946796#1 951946795#10 951946795#11 951946795#11.34 951946795#11.40 951946795#11.45 896786337#10 896786337#10.21 -951887700#20 671756019#0 671756019#1 671756019#2 671756019#2.43 951961253 951961253.63 951961253.68 951961253.73 951961233#1 -951878265#2 951878263#1 951878263#1.39 951878263#1.46 951878263#1.53 951878263#1.72 951878263#1.75 951878263#2 951878263#2.2 -951878266#4 -951878266#4.37 -951878266#2 -951878266#1 -951878266#1.39 -951878266#1.47"/>
</vehicle>
<vehicle id = "veh8" type= "veh_passenger" depart="7210" >
<route edges =" 951370989 951370989.40 951370989.47 951370989.53 951370989.56 951370989.62 951370989.64 951370989.67 -902433320#1 -902433320#0 902433321#2 -45342799#20 -45342797#4 -951368600#1 -951368603#1 -951368603#0 45342835#2 45342809#2 45342809#3 -45342798#2 -45342798#1 45342840#0 -45342810#2 -45342810#1 -45342810#0 45342809#5 45342809#6 45342809#7 45342809#8 45342809#9 -45342821#1 -45342821#1.44 -45342822#2 -45342820#1 -45342804#3 45342832#0 45342832#1 -45342822#0 -45342831#2 -45342831#0 -45342804#1 -45342804#0 45342808#2 45342805#0 45342805#0.20 951417482#0 -951417481 -45342805#2 951417479 -45342809#15 45342824#0 45342833#3 -951366786 45342824#3 -45342823#1 -45342823#0 -45342809#12 -45342809#11 45342825#0 45342825#1 45342825#2 45342828#0 45342828#1 45342828#1.100 -45344273#6 -45344273#6.40 -45344273#6.59 -951384598#3 -951384598#2 -951404491 -951404491.16 -951404491.28 -951404491.40 -951404491.51 -951384599#0 700249213#9 700249212#0 700249212#1 951404492 700249213#11 45342808#10 45342808#11 45342808#11.24 951417471 951417471.18 951417471.38 951370965#1 951370965#1.28 951370965#1.49 -45344314#0 897252864#3 -897252871 -897252870 -45344310#2 -45344310#1 -45344310#0 -45344310#0.10 -45344310#0.18 -45344310#0.30 -45344310#0.41 -45344310#0.52 971495602#8 971495602#8.24 971495602#8.86 -313316104#6 -45378650#5 -45378650#5.11 -45378650#4 -45378650#3 -45378650#3.29 -45378650#2 -45378650#2.42 -45378650#2.62 -45378650#1 -908846596#1 -908846594#1 -908846594#1.54 -908846594#0 -908846595#0 -908846595#0.21 -951435501 -951435501.23 908560901#5 908560901#5.28 908560901#5.87 908560901#6 908560901#6.50 908560901#6.91 908560901#6.131 908560901#7 908560901#8 908560901#8.23 908560901#8.56 -313316104#0 -313316082 -45378649#12 896786296#0 896786296#1 896786296#1.36 -896786262#6 -896786262#6.15 -951355297#2 -951355297#2.10 -951355298#0 -951355298#0.4 951354759#3 951354759#4 951354759#4.40 -896786262#4 -896786262#4.31 -896786262#3 -896786262#3.9 -896786258#4 896786257#0 896786257#0.74 896786257#0.128 896786257#0.138 896786260#4 896786260#4.25 -909024254 -909024254.11 -909024254.37 896786266#3 896786266#4 896786266#5 -896786260#0 -896786260#0.52 896786257#4 909024248 909024248.50 -45378665#3 -45378665#3.29 -45378665#3.50 -45378665#2 -45378665#2.36 -896786257#7 -896786257#7.57 -896786257#7.62 -896786257#7.67 -896786257#7.74 -896786257#7.94 896786293#5 896786293#5.12 909024251 909024251.27 -909024244#1 -909024244#1.5 -909024244#1.34 -909024244#1.68 -909024244#0 896786335#18 896786335#19 896786335#21 896786335#21.5 -896893013#7 -896893013#7.29 -896893013#7.87 -896893013#6 -896893013#6.15 896893003 -896893004#0 -896893014#1 -896893014#0 -896893014#0.9 -951998766#1 -951998766#1.58 -951998766#1.64 -951998766#1.69 -951998766#1.73 896892983#10 896892983#10.17 896892983#11 877388646#5 877388646#5.32 896786297#3 896786297#4 896786297#4.10 896786297#4.18 896786297#4.21 896786297#4.23 -896893005#4 -896893005#3 -896893005#2 -896893005#2.6 -896893005#1 -896786307#9 -896786307#9.12 -896786307#9.63 -896786307#9.67 -896786307#9.69 -896892999 -896892999.50 -896892998#2 -896892998#2.10 -896892998#1 -896892998#0 -896892998#0.14 896892994#1 896892994#1.12 896892994#1.37 -896786307#1 -896786307#0 -896786307#0.54 896786308#1 896786308#1.21 896786305#1 896786305#1.47 896786307#4 896786307#4.28 877388976#0 877388976#0.43 877388976#0.77 877388976#1 877388976#1.12 877388976#1.51 877388976#1.72 -896786304#0 -896786304#0.49 896786308#6 896786308#6.25 -896893013#3 -896893013#3.24 896893011#0 896893011#0.60 -896893012#6 -896893012#6.12 -896893010 -896893010.14 -896893010.84 -896893013#1 -896893013#1.7 -896893009 -896893009.79 -896893012#4 -896893007#1 -896893007#1.18 -896893008#1 -896893008#0 896786300#2 896786300#2.40 896786300#2.70 -896893012#1 -896893012#0 -896893012#0.11 896786303#5 896786303#5.27 896786303#5.100 896786303#5.124 -896786301 -896786301.70 -896786303#3 -896786303#2 -896786303#2.23 -896786303#1 -896786303#1.61 -896786303#0 896786311#13 896786311#13.28 -896786335#10 -896786335#10.38 -951976010#1 -951976010#0 -896786311#8 -896786311#7 -951930673#5 -951930673#4 -951930673#3 -951930673#3.17 -951930673#2 -951930673#2.6 -951930673#1 -951930673#0 896786320#3 896786320#3.27 896786321#3 896786321#3.48 896786321#3.103 -896786335#8 -896786335#8.39 -951976009#1 -951976006#2 -951976006#1 -951976008 896786319#2 896786319#4 -896786317#1 -896786317#1.28 951976005 -896786315#2 -896786315#0 951976013#0 951930665#0 951930667 -951930666#0 -951930666#0.43 -951930666#0.46 -951930666#0.48 -951930666#0.51 951930665#2 951930664#4 951930664#5 -896786316#1 -896786316#1.33 -896786314 -951930663#1 951930662#2 951976000#3 -951976001#1 -951976002 -951976000#1 -951975999 877395784#15 -951946803#2 -951946816#13 -951946816#13.3 -951946816#13.8 -951946816#12 951946833#1 951951640 -951946817#1 -951946816#10 -951946816#9 -951946816#7 -951946816#6 -951946816#6.36 -951946816#6.40 -951946816#6.43 -951946816#6.46 -951946816#5 -951946816#5.8 -951946816#5.11 -951946816#5.14 -951946816#5.18 -951946816#4 -951946816#2 -951946816#1 -951946816#0 -951946815#4 951946828 -951946787#4 -951946787#3 -951946787#2 -951946814#2 -951946814#0 -951946812#1 -951946813 951946810#1 951946810#2 -896786337#14 -896786337#14.40 -896786337#14.111 -952365020 -952365021 -951878231#2 951868619#0 951868620#0 -951868611#1 -951868611#0 -951951643#4 -951951643#3 -951951643#2 876509484#2 -951951642#1 -951951648#1 951951649 -951878263#6 -951878263#5 -951878269#15 -951891772#2 -951891774 951891771#2 951878270#2 951878270#3 951878270#4 -951887656#2 951891765#1 -951887654#2 951878272#2 -951891763#2 -951887659#1 -951887659#0 951887661#0 951887661#1 951887662 -951887660#2 -951887660#0 877401978#1 951878266#0"/>
</vehicle>
<vehicle id = "veh9" type= "veh_passenger" depart="10815" >
<route edges =" 951370989 951370989.40 951370989.47 951370989.53 951370989.56 951370989.62 951370989.64 951370989.67 -902433320#1 -902433320#0 902433321#2 -45342799#20 -45342797#4 -951368600#1 -951368603#1 951368601#0 -951368602#1 -951368602#0 -45342835#0 -45342797#0 45342834#2 45342809#3 45342809#4 45342809#5 45342809#6 45342839#0 45342839#1 -45342840#2 671416444#0 671416442#0 671416442#1 671416442#2 -45342838#1 -671416443#2 -671416443#1 -671416443#0 671416444#2 45342810#2 45342810#3 45342810#4 45342810#4.21 45342810#5 45342810#6 45342810#6.38 -44740885#16 -44740885#15 -44740885#15.10 -951366785 45342810#10 45342810#10.5 -44740885#12 -44740885#12.2 -44740885#12.5 -44740885#11 -44740885#11.4 -44740885#11.8 -44740885#10 -44740885#9 -44740885#9.34 -44740885#8 -44740885#7 44740902#12 44740902#13 44740957#4 -671399051#1 -671399051#0 -44740942#1 44740901#1 44740901#2 44740957#6 44740957#7 951417474 44740896#2 44740896#3 -44740959#1 -44740959#0 44740895#3 974189220#3 -951417475#0 44740972#1 -44740969#4 -44740969#2 -951439006 -951439007 -951439008 955813295#1 955813295#1.169 955410233 955410234 102277232#1 44739167#9 -44740930#7 44740928#0 44740928#0.19 44740928#1 44740928#2 44740927#13 -44739167#11 -44740926#5 -44740925#1 44740989#0 44740923#1 44740923#2 44740923#3 -44740953#0 44740922#3 -44740967#4 -44740967#3 -44740930#16 -44740962#2 951439009 -44740929#7 44740967#1 -951438763#1 -951438763#1.52 -951438763#0 -951438763#0.72 -951438763#0.77 -951438763#0.80 -951438763#0.82 -951438763#0.85 44740929#3 44740929#4 -951438760#1 -951438760#0 -313316091#19 -313316091#18 -313316091#18.26 -313316091#17 -313316091#16 45378639#0 45378639#0.48 -45378689#5 -45378689#4 45378686#0 45378686#1 45378658#1 45378641#0 -951439125#1 -951439125#0 -951439125#0.15 -951439125#0.25 -951439125#0.33 45378639#3 45378639#4 -699869913 -699869913.14 -699869913.19 -699869913.23 -699869913.28 -45378640#3 -45378683#4 -45378683#4.30 -45378683#4.33 -45378683#4.36 -45378683#4.38 -45378683#4.41 -45378683#4.68 -45378683#4.75 -45378683#4.81 -45378683#4.88 -45378658#3 -45378640#1 -45378640#0 -45378655#0 -45378688#0 -45378689#1 -45378682#1 45378691 -45378690#0 -45378690#0.32 -313316091#11 -313316091#10 -313316091#10.31 -313316091#8 -313316091#8.29 45378683#0 45378683#0.76 45378683#1 45378655#2 45378655#3 -45378685#2 671178935 -45378684#0 -45378684#0.58 -45378684#0.107 -313316091#5 -313316091#5.44 -313316091#4 -313316091#4.67 -44739163#20 -44740919#1 -44740919#0 44740920#8 -313316091#0 -313316091#0.27 -313316091#0.72 -313316091#0.80 -971495601#9 -971495601#9.28 -971495601#8 -971495601#7 -971495601#6 -971495601#5 -971495601#3 -971495601#1 -971495601#0 -313316086 -44739144#26 -44739144#24 903953326#0 903953326#1 -903953325#3 -903953325#2 -903953325#2.18 -909778547#2 -951361609 903953324#1 903953324#1.22 702673217#0 702673217#1 -909024261 -909024261.82 909024262#1 909024262#1.26 -896786294#11 -896786294#11.13 -896786294#10 -909024270 -909024270.74 -909024270.101 -909024277#0 -909024279#3 -909024279#2 -909024279#2.12 -909024276#2 -909024276#1 951433468 951433468.11 951433468.23 951433468.31 951433468.39 951433468.48 951433468.57 -896786296#16 -951346848#1 -909024260 -909024260.37 -909024260.93 -909024260.137 -896786295#6 -896786295#6.9 -896786282#4 -896786282#4.21 -896786282#4.92 896786281#0 896786280#1 -896786275#5 -896786275#4 -896786275#3 -896786271#0 -896786272#0 -896786279#0 -896786279#0.19 -896786275#1 -896786275#1.18 -896786275#0 -896786275#0.11 896786268#2 896786268#2.6 896786268#3 896786295#13 -896786294#5 -896786294#5.6 -896786294#5.10 -896786294#5.13 -896786294#5.16 -896786294#5.19 -896786294#5.22 -896786294#4 -896786294#3 -896786294#3.26 951992347 -896786277#2 -896786277#0 877398366#16 904286386#0 909024293#2 -909024292 -909024292.58 -896786290#3 -896786290#2 -896786290#1 -896786290#1.17 -904286381#6 -904286381#4 -904286372#1 -904286375#0 -904286385#10 -904286385#9 -904286385#8 -904286385#6 951973468#1 951973468#2 951973468#2.24 951973468#2.27 951973468#2.29 951973468#2.32 -904371490#0 -951973470#1 -951973470#1.3 -951973470#1.6 -951973470#1.10 -951973471#4 -904371456#2 -904371456#2.22 -904371456#1 -904371456#0 -904371456#0.17 -671191680#0 -671191680#0.38 -671191680#0.44 -671191680#0.48 -671191680#0.53 -671191680#0.58 -671191680#0.63 -671191680#0.76 -896786327#0 877395784#22 877395784#22.56 904371492#0 904371492#0.68 -904371493#5 -904286385#1 -904286385#0 -952002224#7 -952002224#7.17 -952002224#7.71 -951973426#2 951951638#9 951973434#1 951951639#3 951951639#4 -951973432#1 -951951638#7 -951951638#5 -951973430#0 -952002224#4 -952002224#4.27 -952002224#3 -952002224#3.30 -952002224#3.48 -952002224#3.80 904286410#0 904286410#0.33 904286409#0 951874860#2 904286402#1 904286402#2 951874858#0 -951874860#4 -951874871 -951874871.18 -951874871.21 -951874871.24 -951874871.28 951874858#2 896786339#3 896786339#3.3 896786339#4 896786339#4.4 -904286410#3 -904286410#2 -904286411#3 951874850#0 -951874849#1 -951874849#0 -951874848#0 -952002224#1 896786337#4 951951638#0 -952000397 -951951639#14 -951946794#0 951946792#1 896786337#8 896786337#8.8 896786337#10 896786337#10.21 -951887700#20 -951887700#19 -951887686#1 -951887686#0 -951887682#4 951887687#0 951887687#0.26 951887688#0 951887689 -951887700#16 -951961233#4 951961244 951961244.37 951961244.40 951961244.43 951961244.47 -951961242#1 951961243 -951887700#14 -951887679#2 951887680 951887678#2 951887700#10 951887700#11 951961240#0 951961240#0.54 951961240#0.57 951961240#0.59 951961240#0.62 -951961245 951891772#0 -951891773 -951891771#0"/>
</vehicle>
<vehicle id = "veh10" type= "veh_passenger" depart="10815" >
<route edges =" 45342801#5 45342801#5.32 902433317#3 902433317#4 902433317#6 902433317#7 902433317#8 902433317#8.29 951368593#1 972507120#2 972507120#3 -951369746#4 -951369746#4.24 -951369746#4.27 -951369746#4.29 -951369746#2 -951369746#2.3 -951369746#2.36 -951369746#2.42 -951369746#2.45 -951369746#2.50 -951369746#1 -951369746#1.3 -951369746#1.9 -951369746#1.18 -951369746#1.26 -951369746#1.35 -951369746#0 -951369746#0.7 -951369748#0 -951369748#0.14 -951369748#0.17 -951369748#0.19 -951369748#0.22 951379886#1 951379886#1.14 951379886#2 951379886#2.14 951379886#2.19 951379886#2.22 951379886#2.25 951379886#2.28 -951369741#1 -951369741#1.20 -951369741#1.25 -951369741#1.30 45344273#27 45344273#27.17 45344273#28 45344273#29 45344273#29.12 45344273#29.34 -950455048#5 -951381441 -951381441.32 -951381441.36 -951381441.38 -951381441.41 -951381441.44 -951381441.47 -951381441.76 -951381441.82 -951381441.85 -951381441.89 -951381441.93 -950235694#6 -950235694#6.23 -950235694#6.27 -950235694#6.30 -950235694#6.35 951381436 951381436.26 951381436.34 951381436.39 951381436.45 -897252875#0 -897252875#0.4 -897252875#0.15 -897252875#0.35 897252876#3 897252876#4 45344320#2 45344320#3 -45344331#4 -45344331#3 -45344331#2 -45344331#1 952274660 952274660.29 952274660.31 952274660.34 951404486#1 -902433295#5 951381433 951381433.13 951381433.15 951381433.17 951381433.18 951381433.19 951381433.23 951381433.25 951381433.26 951381433.27 951381433.29 951381433.31 -897172091#4 -897172091#3 -897172091#1 -897172091#0 -45344294#6 -45344294#6.9 -45344294#6.25 -45344294#5 -45344294#5.7 -45344294#4 -45344294#4.7 -45344294#4.18 -45344294#3 -45344295#2 -45344295#2.38 -45344295#2.87 -45344295#1 -45344295#1.36 -45344295#1.64 -45344295#1.77 -45344295#0 951384595#0 951384595#0.37 951384595#0.57 951384595#0.95 951384595#0.97 951384595#0.100 951384595#1 951384595#1.2 951384595#1.4 -45344290#0 -45344290#0.39 -45344290#0.42 -45344290#0.45 -45344290#0.47 -700249213#6 -700249213#5 -700249213#5.52 -45344292#4 45344290#2 -951370976#1 -951370976#0 -951370976#0.11 -951370976#0.13 -951370976#0.16 -951370976#0.19 -951370976#0.21 -951370976#0.23 -897252863#2 -897252863#0 -897252863#0.7 -897252863#0.15 45344290#4 45344305#1 -45344304#8 -45344304#8.11 -45344304#7 -45344304#6 -45344304#6.5 -45344304#6.31 -45344304#6.62 -45344304#5 -45344286#12 -45344286#11 -45344286#9 -45344286#9.15 -45344286#9.41 -45344286#9.67 -45344286#8 -951384608#1 -951384608#1.59 -951384608#1.63 -951384608#1.67 -951384608#1.69 -951384608#1.73 -951384608#0 -951384608#0.43 -951384608#0.47 -951384608#0.50 -951384608#0.52 -702632123#1 -702632123#1.4 702632122#0 702632122#0.6 702632122#0.10 702632122#0.14 702632122#0.18 702632122#0.49 702632122#0.55 702632122#0.60 702632122#0.66 702632122#0.72 702632122#0.90 702632122#0.93 702632122#0.96 702632122#0.98 702632122#0.100 702632122#0.108 702632122#0.114 702632122#0.117 702632122#0.121 702632122#0.128 702632122#1 702632122#1.17 702632122#1.20 702632122#1.23 702632122#1.27 702632122#1.31 702632122#1.38 -951440588 -951440588.7 -951440588.10 -951440588.13 -951440588.16 -951440588.21 -951440588.26 -951440588.30 -951440588.35 -951440588.39 -951440588.44 -951440588.72 -951440588.82 -951440588.90 -951440588.97 -951440588.103 -951440588.117 -951440588.121 -951440588.124 -951440588.126 -951440588.135 -951440588.140 -951440588.146 -951440588.151 -951440588.155 -951440588.159 -951440588.175 -951440588.198 -951440588.205 -951440588.210 -951440588.231 -951440588.236 -951440588.241 -951440588.245 -45344286#1 -45344286#1.19 -45344286#0 -45344307 -951441961 971495602#10 971495602#10.24 971495602#10.91 971495602#10.136 971495602#10.205 971495602#10.291 971495602#10.337 971495602#10.378 971495602#11 971495602#12 971495602#12.26 971495602#12.77 951442813 951442812#0 -896786335#50 -896786335#49 -896786335#48 -896786335#48.15 -896786335#47 -951354779 -951354779.16 -951354779.25 -951354779.33 -951354779.41 -896892981#9 -896892981#8 -896892981#8.18 -896892981#8.50 -896892981#8.78 -896892981#6 951349912#0 951349912#0.14 951349912#0.18 951349912#0.25 951349912#0.33 951349912#0.69 951349912#0.72 951349912#0.74 951349912#0.76 951349912#1 951349912#1.12 951349912#1.14 951349912#1.16 951349912#1.19 -896786335#44 -896786335#44.9 -896786335#44.71 -896786335#43 -896786335#42 -896786335#42.22 896892983#0 896892983#0.10 896892983#1 896892983#1.19 -951421976 -896892982#1 -951349921#5 -951349921#5.15 -951349921#5.17 -951349921#5.20 -951349921#5.23 -951349921#5.25 -951349921#5.32 -951349921#5.34 -951349921#5.37 -951349921#5.39 -951349921#5.42 951349920 951349920.8 951349920.12 951349920.15 951349920.20 951349920.60 951349920.65 951349920.69 951349920.73 951349920.77 -896786335#37 -896786335#36 -896786335#34 -896786335#33 -896786335#32 -896786335#32.17 951355291 951355291.25 951355291.31 951355291.36 951355291.46 951355291.50 951355291.55 951355291.60 951355291.65 -908869252#1 -908869252#0 -908869252#0.17 -896786335#30 -896786335#29 -896786335#29.17 -896893017#1 -896893018#1 -896893018#1.27 -896893018#0 877388728#14 -896786335#24 -896786335#23 -896786335#23.44 -896786335#22 -896893013#7 -896893013#7.29 -896893013#7.87 951995483 -896893004#2 951995485 -896893005#0 -896893005#0.12 -896893005#0.57 -896893005#0.74 -896893013#3 -896893013#3.24 -896893013#2 896893010 896893010.28 896893010.97 -896893012#5 -896893012#5.11 -896893012#4 -896893012#3 -896893012#2 -896893012#2.9 -896893012#1 -896893012#0 -896893012#0.11 -896786303#4 -896786303#4.22 896786301 896786301.58 896786303#6 896786303#6.29 896786302#1 896786304#6 -951983587#6 -951983587#5 -951983587#4 -951983587#4.5 -951983587#4.15 -951983587#4.17 -951983587#4.21 -951983587#4.25 -951983587#4.34 -951983587#3 -951983587#3.2 -951983587#2 877398739#2 877398739#2.30 -951983590 -896786311#9 951976010#0 951976010#1 -896786322 -896786322.14 -896786322.21 -896786323#1 896786325#4 896786325#4.12 896786335#6 896786335#7 -951976009#1 -951976009#0 951930673#0 951930673#1 951930674 951930674.32 951930674.37 951930674.40 951930674.44 -951930673#4 -951930672#1 -951983602 -896786311#4 -951930671#3 -951930671#3.23 -951930671#2 -951930671#2.8 -951930671#1 -951930671#0 -951930671#0.25 -951930671#0.32 -951930671#0.42 -877396172#3 896786315#0 -896786316#3 -896786316#2 -896786316#1 -896786316#1.33 -896786316#0 -896786319#5 -896786319#5.26 896786317#2 896786317#2.28 896786317#3 896786317#3.44 -896786335#3 -896786335#3.10 -896786335#2 -896786335#1 -896786335#1.14 -896786335#0 -951946803#2 951946816#14 951946816#15 877395784#19 951951639#0 951951639#1 951946802 951946795#2 951946795#3 951946795#4 -951946799 951951639#9 951951639#10 951946797 951946795#9 951946795#10 951946795#11 951946795#11.34 951946795#11.40 951946795#11.45 -951887683 -951887684 -951887682#6 -951887682#5 951887686#0 951887686#1 -671756019#4 -951961235 951961234#1 -951878265#2 951878263#1 951878263#1.39 951878263#1.46 951878263#1.53 951878263#1.72 951878263#1.75 951878263#2 951878263#2.2 -951878266#4 -951878266#4.37 -951878266#2 -951878266#1 -951878266#1.39 -951878266#1.47"/>
</vehicle>
<vehicle id = "veh11" type= "veh_passenger" depart="10815" >
<route edges =" -45342801#4 45342799#23 45342799#25 45342799#25.7 45342799#25.22 45342799#26 45342799#27 45342799#27.15 45342799#27.20 45342799#27.25 45342799#27.36 972507120#0 -903341083#3 -903341083#2 -903341083#1 -951368605#2 -951368605#1 -951368605#0 45342811#1 45342811#2 45342811#2.66 -45344273#22 -45344273#22.6 -45344273#22.18 -45344273#22.35 -45344273#21 -45344273#21.28 -45344273#19 45344322#0 -951404485 -45344321#0 -45344273#17 -45344273#17.20 -45344273#17.31 -45344273#16 -45344273#16.5 -45344273#16.30 -45344273#14 -45344273#14.32 -45344273#13 -45344273#12 -45344273#11 -45344273#10 -45344273#10.42 -45344273#9 -45344273#8 -45344273#8.10 -45344273#7 -45344273#7.22 -45344273#6 -45344273#6.40 -45344273#6.59 -45344273#5 -45344273#5.6 -45344273#5.15 -45344273#4 -45344273#4.8 -45344273#4.37 -45344273#3 -45344273#3.6 -45344273#3.14 -45344273#3.31 -45344273#3.48 -45344273#2 -45344273#2.6 -45344273#2.24 -45344273#1 -45344273#1.7 -45344273#0 -897252881 -45378637#10 -45378637#9 -951404484#10 -951404483#1 -951404474#1 951404473 -951404484#6 -951404484#5 -951404484#4 -951404484#4.8 -951404484#4.11 -951404484#4.13 -951404484#4.15 951404480 951404480.8 951404480.10 951404480.12 951404480.16 951404480.58 45378639#11 45378639#12 45378639#12.8 -45344310#1 -45344310#0 -45344310#0.10 -45344310#0.18 -45344310#0.30 -45344310#0.41 -45344310#0.52 971495602#8 971495602#8.24 971495602#8.86 -313316104#6 -313316104#5 -313316104#5.12 -313316104#5.27 -313316104#5.46 -951435500 -951435500.28 -951435500.32 -951435500.35 -951435500.37 -951435500.40 -951435500.48 -951435500.51 -951435500.54 -951435500.57 -951435500.60 -951435500.63 -951435500.67 -951435500.70 -951435500.74 -951435500.78 -951435500.92 -951435500.96 -951435500.100 -951435500.103 -951435500.108 -951435500.117 -951435500.121 -951435500.125 -951435500.137 -951435500.141 -951435500.145 -951435500.148 -313316104#3 -313316104#2 -313316104#2.13 -313316104#2.35 -313316104#2.44 45378651#0 45378651#0.22 45378651#1 45378651#2 45378651#2.13 45378652#0 45378652#0.26 908560884#0 951347808#0 951347808#1 -45378651#4 908560887#0 908560887#0.10 908560887#1 951347805 951347805.34 951347805.35 951347805.37 951347805.38 951347805.40 951347805.42 951347805.44 951347805.45 951347805.47 951347805.48 951347805.50 951436329#1 -908560882#2 -908560882#2.31 -908560882#2.36 -908560882#2.42 -908560882#2.46 -908560882#2.49 -908560882#2.63 908560881#0 908560881#0.35 908560881#0.70 908560881#0.73 908560881#0.74 908560881#0.76 908560881#0.78 908560881#0.81 908560881#1 908560881#1.17 951347806#0 951347806#0.30 951347806#0.32 951347806#0.34 -951436327 -951436327.3 -951436327.5 -951436327.7 -951436327.22 -951436327.25 -951436327.29 -951436327.34 -951436327.38 -951436327.40 -951436327.51 -951436327.55 -951436327.60 -908560886#1 -908560886#1.3 -908560886#1.6 -908560886#1.11 -908560886#1.25 -908560886#1.40 -908560886#0 -908560886#0.7 -908560888#2 -908560888#2.7 -908560888#2.15 -908560888#2.23 -908560888#2.29 -908560888#2.38 -908560888#2.44 -908560888#2.50 -908560888#0 -908560888#0.34 -908560888#0.66 -45378643#6 -45378643#6.10 -45378643#5 -45378643#5.11 -45378643#4 -45378643#4.5 -45378643#4.18 -45378643#2 -908560871 -908560871.24 -908560871.54 -45378651#13 -45378651#13.14 -45378651#13.26 -908560872#1 -908560872#1.53 -908560872#1.77 -951436653 951436654#1 951436654#1.3 951436654#1.11 951436654#1.18 951436654#1.26 951436654#1.35 951436654#1.42 951436654#1.51 951436654#1.60 951436654#1.64 951436654#1.66 951436654#1.68 951436654#1.70 951436654#1.74 951436654#1.76 951436654#1.78 951436654#1.80 951436654#1.93 951436654#1.99 951436654#1.104 951436654#1.111 -45378651#10 -45378651#9 -45378651#9.1 908560868#0 908560868#0.13 -951436655 -951436655.38 -908560882#0 -908560885#3 -908560885#3.25 -908560885#3.32 -908560885#3.37 -908560885#2 -908560885#2.2 -908560877#1 -908560877#1.33 -908560877#1.41 -908560877#0 -908560877#0.10 -908560877#0.27 -908560877#0.90 -908560877#0.115 -908560877#0.140 -908560901#15 -908560901#14 -908560901#14.9 -908560901#13 -908560901#13.39 -908560901#12 -908560901#10 -908560901#9 -908560901#9.4 -908560901#9.59 -313316104#0 -313316082 -45378649#12 896786296#0 896786296#1 896786296#1.36 -896786262#6 -896786262#6.15 -951355297#2 -951355297#2.10 -951355297#1 -951355297#0 -45378649#7 -45378649#7.4 -45378649#5 -45378649#5.24 -45378649#5.57 -45378649#5.68 -45378649#3 -45378649#3.8 -896786265#8 896786264 896786264.45 896786264.99 896786261 -896786262#1 -951354764#1 -951354764#0 -951354764#0.33 -951354764#0.44 -951354764#0.55 -951354764#0.67 -896786265#6 -896786265#6.26 -896786265#5 -896786265#4 -896786265#4.59 -896786265#2 -896786265#0 909024253#0 909024253#1 909024253#1.45 909024253#2 909024253#2.16 909024252#1 -896786266#7 -896786266#6 -896786266#6.39 896786260#1 896786260#1.37 896786260#3 -896786257#0 -896786257#0.24 -896786257#0.34 -896786257#0.89 -896786258#2 -896786258#2.22 896786255#0 951355294#0 951355294#0.41 896786254#1 896786254#1.50 896786296#3 896786296#4 -896786259#2 -896786259#2.6 -896786259#2.30 -896786259#2.64 -896786259#1 -896786259#1.16 -896786259#1.36 -896786259#1.39 -896786259#1.42 -896786259#1.44 -896786259#1.47 -896786259#1.55 -896786259#1.98 -896786260#6 -896786260#6.19 -909024254 -909024254.11 -909024254.37 -896786266#1 -896786266#1.7 -896786266#1.22 -896786266#1.30 -896786266#0 -896786266#0.9 -896786266#0.23 -896786266#0.37 -896786266#0.58 -896786266#0.78 -896786266#0.96 -45378665#11 -45378665#11.12 -45378665#11.33 -45378665#10 -45378665#8 909024255 909024255.12 909024255.40 909024255.70 896786266#4 896786257#2 896786257#2.28 896786257#2.57 896786257#3 896786257#3.14 896786257#4 896786257#5 909024241#0 909024241#0.28 909024240 909024240.30 909024240.47 -896786293#3 -896786293#3.1 -45378665#2 -45378665#2.36 -45378665#1 909024239#0 909024239#1 909024239#1.17 909024239#2 909024239#2.40 877398366#3 -951995475#3 -896786288#1 896786291#1 896786291#1.19 877398366#6 877398366#8 877398366#8.29 877398366#8.95 896786286#0 896786286#0.25 896786286#1 896786286#1.15 951995479#0 896786287#1 896786292#4 896786292#4.57 896786286#3 -877396033#4 -877396033#4.15 896786285 896786285.95 -904371462#2 904371460#0 904371460#0.34 951995474 877396860#8 -904371462#0 904371463#1 904371463#1.15 -671191680#11 -671191680#9 -904371467#2 -904371467#2.49 -904371467#2.113 904371464 896786325#1 -896786328#1 -896786328#0 -896786328#0.177 -877395784#20 -877395784#19 -951946816#15 -951946816#14 951946803#2 896786335#0 896786335#1 896786335#1.52 951976001#0 951976001#1 -951976000#3 -951930662#2 -951930663#0 877395784#12 -951946824 -951946822 -951946821#1 951946823 951946816#10 951946816#11 951946833#1 951951640 951946817#2 -951951641 951946833#3 -951946817#5 -951951636 951951635#2 -951946806#8 951951629 951946833#11 951946833#11.92 951946833#11.95 951946833#11.98 951946833#11.101 -951946806#0 -952365020 -952365021 -951878231#2 -951951643#6 -951951643#5 -951951643#4 -951951643#3 -951951646 -951951642#2 -951951642#1 -951951642#0 -951878263#5 -951878269#15 951891772#3 -951961237 951891766#3 -951878269#10 -951878269#9 -951930614 951878270#4 -951891764#2 -951891764#1 951891763#0 951891763#1 951891763#2 -951887657 -951887655#1 -951887655#0 -904196454#0 -700825961#7 -700825961#7.10 -700825961#7.37 -700825961#6 -700825961#6.9 951887666#0 951887666#1 951887666#2 951887664#1 -904196454#4 951887659#0 -951887660#5 -951887660#3 -951887662 951887661#2 951887661#3 951878266#0"/>
</vehicle>
<vehicle id = "veh12" type= "veh_passenger" depart="14420" >
<route edges =" 951370989 951370989.40 951370989.47 951370989.53 951370989.56 951370989.62 951370989.64 951370989.67 -902433320#1 -902433320#0 902433321#2 45342799#21 45342809#0 45342809#1 45342809#2 -45342834#2 -45342834#1 -45342834#0 44740902#8 -45342798#6 -45342798#5 -45342798#4 -45342837 -45342836#0 -45342818#1 -45342817#2 -45342817#1 45342816#0 951370984#1 951370984#2 44740902#10 44740902#10.9 44740902#11 44740885#7 -45342841 45342802#2 -45342803#1 -45342803#0 -45342843#2 -45342843#1 45342844 -45342808#0 -45342808#0.42 671399046#0 671399046#0.17 671399046#0.59 671399046#1 -671399056 671399058#2 -44740901#3 -44740957#5 -671399051#1 -671399051#0 -44740942#1 -44740901#0 -313316089 -951438761 44740929#6 44740967#1 44740967#2 -44740930#16 -44740962#2 951439009 44740929#8 -44740960#1 44740962#0 -44740963 -44740930#14 -44740930#13 -44740930#12 -44740930#11 -44740930#10 44740923#0 44740923#1 44740926#1 44740926#2 -951358804 -44740955#1 951358803 44740926#4 -44740925#1 -44740925#0 -44740930#8 -44739167#9 102277232#2 102277232#2.138 44739163#14 44740930#6 44740928#0 44740928#0.19 -44740926#6 44739167#11 -44740927#13 -44740928#2 -951358805#1 -951358802 -44740927#11 -951358801 -44740953#5 44740951#0 -44740952 44740953#7 -44740949#1 -44740949#0 -44739167#14 -44740945#1 44740946#0 44740948#0 44740948#1 44740940#2 -313316091#12 45378690#0 45378690#0.38 45378690#1 45378686#0 45378686#1 -45378658#0 45378639#2 45378639#2.25 45378639#2.39 45378639#3 951439124 951439124.12 951439124.17 951439124.21 951439124.25 951439125#1 -45378641#0 45378658#2 45378658#3 -45378683#3 -45378653#6 -45378653#5 951358812 45378655#6 951358810#1 951358810#1.4 45378656#1 -45378655#4 -45378685#2 -45378685#1 45378654#0 45378654#1 -45378657#3 -45378657#3.57 -45378657#3.61 -45378657#3.65 -45378657#3.69 -45378657#3.73 -45378657#3.78 -45378672 -45378672.64 45378673 -45378657#1 -44740931#2 -44740931#2.59 313316091#2 313316091#2.78 -44739163#20 -44740919#1 -44740919#0 -951358792 -951358792.26 -951358792.42 -951358792.53 -951358792.66 896892969#18 -971495601#9 -971495601#9.28 -971495601#8 -971495601#7 44740916#12 -909019766#1 -909019766#1.6 -909019766#1.14 -909019766#1.30 -909019766#1.52 909019765 909019768#1 909019767#0 909019767#0.42 909019767#1 909019767#1.24 909019767#1.35 -971495601#5 -971495601#3 -971495601#1 -971495601#0 -313316086 -44739144#26 -44739144#24 903953326#0 903953326#1 -903953325#3 909778546#0 909778546#1 -909778547#0 -44739144#19 -44739144#19.14 702673217#0 909024262#0 909024262#1 909024262#1.26 -896786294#11 -896786294#11.13 -896786294#10 -896786294#8 -896786294#7 -896786294#7.20 -896786294#6 -896786294#5 -896786294#5.6 -896786294#5.10 -896786294#5.13 -896786294#5.16 -896786294#5.19 -896786294#5.22 -896786294#4 -909024256#1 -909024256#1.22 -909024256#1.80 -896786277#3 -951992347 -896786294#2 -896786294#2.7 -896786294#0 -896786294#0.13 904286386#0 904286386#1 904286386#1.27 877396860#16 877396860#17 877396860#17.31 877396860#18 877396860#18.31 877396860#20 877396860#20.72 -904371477 -904371477.66 -904371478#1 -904371478#1.6 904371479#1 904371479#1.2 904371479#1.8 904371479#1.27 904371479#1.58 -904371474#3 -904371474#2 -904371472#1 -904371472#1.50 -904371472#0 -904371482#1 -904371482#1.50 -904371482#1.65 -904371482#0 -904371482#0.24 -904371482#0.73 -671191683#5 -671191683#5.23 -671191683#5.47 -671191683#5.61 -671191683#5.97 -904371473#4 -904371473#3 904371469 -904286386#4 -904286386#4.23 904371470#1 -904286384#0 -904286385#13 -904286385#13.24 896786290#0 896786290#1 896786290#1.24 -904286383#1 904286384#2 904286384#2.14 -877396860#14 -877396860#14.23 -877396860#13 -904286380#1 -904286380#1.6 -904286380#1.33 -904286380#0 -904286381#4 -904286381#3 -904286381#3.6 -904286381#3.20 904286379 904286383#4 -904286382#0 -904286374 904286375#3 -671191680#9 951975997 904286373#1 904286373#2 904286373#2.10 904286373#3 904286373#3.20 904286373#3.23 904286373#4 904286385#8 -951992348 904371486#1 904371487#0 -904371489#2 951973468#0 951973468#1 -951973469 904371490#2 951973470#0 -951973471#4 -951973471#3 -951973471#2 -951973471#2.11 -951973471#2.14 -951973471#2.17 -951973471#2.20 -951973471#1 -951973471#0 -671191680#1 -671191680#1.13 -671191680#0 -671191680#0.38 -671191680#0.44 -671191680#0.48 -671191680#0.53 -671191680#0.58 -671191680#0.63 -671191680#0.76 -896786327#0 -877395784#21 -877395784#21.14 -951951638#10 -951951638#10.18 951973434#1 951951639#3 951951639#4 -951973432#1 -951951638#7 951946800#0 951951639#7 -951973430#1 -951951638#4 -951951638#3 -951951638#2 -951946794#1 -951946794#0 951946792#1 896786337#8 896786337#8.8 896786337#10 896786337#10.21 -951887700#20 -951887700#19 -951887700#18 -951887690 951887688#2 -951887686#0 -951887682#4 951887687#0 951887687#0.26 951887687#1 951887687#1.5 951887687#1.11 -951887700#15 -951887700#14 -951887679#2 -951887679#1 -951887679#1.32 -951887679#1.35 -951887679#1.38 -951887679#1.41 -951887681 951887675#1 -951887674#2 -951887674#1 -951887674#1.5 -951887674#1.8 -951887674#0 904196453#11 -951887667#7 -951887667#6 951887673#0 951887669#2 951887672#3 -951887671#1 -951887671#0 951887668#1 904196452#7 904196452#8 904196452#8.23 904196453#13 951887700#7 951887700#7.21 951887700#7.25 951887700#8 951887700#8.5 951887700#8.7 951887700#8.11 951887700#10 951887700#11 951961240#0 951961240#0.54 951961240#0.57 951961240#0.59 951961240#0.62 -951961245 951891772#0 -951891773 -951891771#0"/>
</vehicle>
<vehicle id = "veh13" type= "veh_passenger" depart="14420" >
[...]
</vehicle>
<vehicle id = "veh18" type= "veh_passenger" depart="21630" >
<route edges =" 951370989 951370989.40 951370989.47 951370989.53 951370989.56 951370989.62 951370989.64 951370989.67 -902433320#1 -902433320#0 902433321#2 45342799#21 45342809#0 45342809#1 -45342835#2 951368603#0 951368601#0 -951368602#1 -951368602#0 -45342835#0 -45342797#0 -45342834#1 -45342834#0 44740902#8 -45342798#6 45342813#0 45342817#0 45342816#0 -951370984#0 -45342803#6 45342814#4 -45342818#3 951370985#0 951370985#1 45342809#7 45342809#8 44740885#10 -45342826#1 -45342826#0 45342825#1 -45342824#4 -45342824#3 -45342824#2 -45342824#1 45342833#3 45342833#4 -45342823#0 -45342809#12 -45342831#3 45342822#0 45342822#1 45342822#2 -45342821#0 -45342803#3 -45342803#2 -45342803#1 -45342803#0 -45342843#2 951417477 44740957#1 44740957#2 44740902#14 44740902#14.81 44740902#14.94 -874839172#0 -44740943 -313316091#20 951438760#0 -672215964 672215965#1 -44740922#0 -313316091#16 -313316091#14 -313316091#14.20 -44740940#2 -44740940#1 44740945#0 44740945#1 -44739167#13 44740953#4 44740951#0 44740951#1 44740949#1 -44740953#7 -44740953#6 951358801 951358806#0 951358806#1 -44740926#7 -44740928#0 -44740928#0.75 -44740930#6 44739163#15 44739163#16 44739163#17 44739163#18 -44740918#2 -44740918#1 44740931#0 -44740919#0 -951358792 -951358792.26 -951358792.42 -951358792.53 -951358792.66 896892969#18 -971495601#9 -971495601#9.28 44740934#0 -668599375#2 -668599375#2.17 -668599375#1 -668599375#1.9 -668599375#0 -909019783 -909019783.98 -971495601#3 -44740910#8 -671410531#2 -671410531#1 -671410531#1.53 -671410531#1.57 -671410531#1.63 -671410531#0 -909019784#0 313316100#8 313316100#8.72 -971495601#0 -313316086 -44739144#26 -44739144#24 909024272#0 909024272#0.29 909024273#0 909024273#0.33 909024273#1 909024273#2 909024273#3 909024276#0 909024276#0.40 909024276#1 951346848#0 951346848#0.15 951346848#0.24 951346848#0.33 951346848#0.42 -909024260 -909024260.37 -909024260.93 -909024260.137 -896786280#3 909024257 909024257.36 909024257.92 -896786275#3 -896786275#2 -896786275#2.8 909024281 909024281.8 896786270#1 896786269#9 896786295#12 896786295#12.9 896786295#13 -896786294#5 -896786294#5.6 -896786294#5.10 -896786294#5.13 -896786294#5.16 -896786294#5.19 -896786294#5.22 -896786294#4 -896786294#3 -896786294#3.26 951992347 -896786277#2 -896786276 -896786276.82 -702673217#5 -702673217#4 -702673217#3 -702673217#2 -702673217#1 -702673217#0 -44739144#18 671752228#0 -671960103#1 -671960103#0 671960104#1 671960102 -671960101#10 44740913#4 903953323#0 -909778560#0 -909778560#0.13 44739144#12 -877396860#22 -952002225#1 -909024265#2 -909024265#2.29 -909024265#1 -909024265#0 896786289#1 896786289#1.39 -877398366#18 -909024294#1 909024293#0 909024293#1 909024293#1.20 909024293#1.34 909024293#2 909024293#3 896786290#5 -877398366#15 -877398366#15.29 -904286380#3 -904286380#3.41 904286378#0 904286378#1 904286382#3 904286382#4 904286382#4.15 -877398366#13 -671191680#14 877396860#11 -904286382#1 -904286383#4 -904286383#3 -904286383#3.28 -904286383#2 -904286383#1 904286384#2 904286384#2.14 877396860#15 904286386#2 904371474#0 904371474#0.21 904371473#0 904371470#0 904371470#1 904371470#2 -904286381#6 -904286381#4 -904286372#1 -904286372#0 904286373#4 -904371487#1 -904371487#1.16 -904371489#2 951973468#0 951973468#1 -951973469 904371490#2 951973470#0 -951973471#4 -904371456#2 -904371456#2.22 -904371456#1 -904371456#0 -904371456#0.17 -671191680#0 -671191680#0.38 -671191680#0.44 -671191680#0.48 -671191680#0.53 -671191680#0.58 -671191680#0.63 -671191680#0.76 -896786327#0 -877395784#21 -877395784#21.14 -951951638#10 -951951638#10.18 951973434#1 951951639#3 951973426#1 -951951638#8 -951951638#7 -951951638#5 -951951638#4 -951951638#3 952000398 951951639#13 951951639#14 951951639#15 896786337#6 896786337#7 896786337#8 896786337#8.8 896786337#10 896786337#10.21 -951887700#20 -951887700#19 -951887686#1 -951887688#2 951887690 -951887700#17 -951887700#17.17 -951887700#16 -951887700#15 -951887700#14 -951887700#12 -951887700#12.12 951961240#0 951961240#0.54 951961240#0.57 951961240#0.59 951961240#0.62 -951961245 951891772#0 951891772#1 -951891774 -951891771#1 -951891771#0"/>
</vehicle>
<vehicle id = "veh19" type= "veh_passenger" depart="21630" >
<route edges =" 45342801#5 45342801#5.32 902433317#3 902433317#4 902433317#6 902433317#7 902433317#8 902433317#8.29 902433317#9 951368594#0 951368594#1 -951369743#1 -951369743#1.33 -951369743#1.39 -951369743#0 -951369743#0.6 951369744#2 951369744#2.22 951369744#2.31 -951369736 -951369736.21 -951369736.22 -951369736.24 -951369736.25 -951369736.26 -951369736.36 -951369736.39 -951369736.41 951369745#0 -951381440 -951369737#0 -951369737#0.5 -951369737#0.11 -951369746#1 -951369746#1.3 -951369746#1.9 -951369746#1.18 -951369746#1.26 -951369746#1.35 -951369741#4 -951369741#2 -951369741#2.8 -951369741#2.11 -951369741#2.13 -951369741#2.16 -951369741#2.19 -951369741#2.22 -951369741#1 -951369741#1.20 -951369741#1.25 -951369741#1.30 45344273#27 45344273#27.17 45344273#28 -876567894#62 -876567894#62.5 -876567894#62.35 951381443 951381443.47 951381443.49 951381443.52 951381443.54 951381443.57 45344273#30 45344273#30.8 45344273#30.25 45344273#30.39 897252882#1 897252882#1.10 897252882#2 897252882#2.30 897252882#2.48 897252882#3 897252882#3.15 -950755152#2 -950755152#2.42 -950755152#2.59 -950755152#2.65 950755151 950755151.35 950755151.45 950755151.55 45344271#26 45344271#26.18 950235711#0 -950757962#1 -950757962#0 -950757962#0.14 -950757962#0.18 -950757962#0.21 950757964#2 -950757963#0 951132942#1 950759350#0 950235713#3 -950757960#0 -902433292#8 -902433292#7 -902433292#6 -902433292#5 876614905#0 876614905#0.63 950235718#0 950235718#0.14 950235718#0.21 950235718#0.29 -950235714#5 -950780327 -950235719#3 950759343 950759343.33 902822419#8 -902433292#0 -902433292#0.16 45344276#4 950235725#0 950235726#1 -45344277#0 -45344276#2 903373125#0 903373125#1 903373125#1.14 903373125#1.24 903373125#1.33 903373125#1.41 903373125#1.50 950235713#0 950759344 950759344.25 950759344.36 950759344.47 -950759347#1 -950759347#1.4 -950759347#1.8 -950759347#1.13 -950759347#1.29 -950759347#1.34 -950759347#1.39 -950759347#1.44 -950759347#1.51 -950759347#1.81 -950759347#1.85 -950759347#0 -950759347#0.3 45344271#21 950755153 950755153.14 950755153.22 950755153.29 950755153.35 950755153.53 950235707#1 897252886#1 897252886#1.30 897252886#1.51 897252886#2 897252886#2.18 897252886#2.33 897252886#4 897252886#4.10 897252886#4.25 897252886#4.39 45344273#32 45344273#32.22 45344273#32.44 45344273#33 45344273#34 45344273#34.26 45344273#35 45344273#35.26 45344273#36 45344273#36.18 -950238179#1 -950238179#0 950238178#4 950238178#4.14 -45344278#1 -903341095#2 -903341095#1 -903341095#0 45344276#0 -950759346#1 -950759346#0 950806855#5 -45344278#5 950238180#0 950238180#1 950238180#2 -950780324#1 -950780324#1.27 -950780324#1.31 -950780324#1.35 -950780324#1.39 -950780324#1.41 -950780324#1.44 950238184#2 950238184#2.9 950238184#2.18 950238184#2.27 -950780323 -950780323.12 -950780323.20 -950780323.27 -950780323.33 950238182#2 950238182#2.9 -950238181#2 -950238181#2.23 -950238181#2.28 -950238181#2.32 -950238181#2.36 -950238181#2.40 -950238181#2.43 -950238181#2.49 -950238181#2.63 -950238181#2.65 -950238181#2.67 -950238181#2.70 -950238182#0 -950238178#1 -950238178#0 -897252880#8 -897252880#8.44 -897252880#7 -897252880#7.31 -45344271#10 -950641816#10 -950641816#9 -950641816#8 -950235729#0 -897252880#4 -897252880#3 -950235727#0 950641816#6 -950872165#4 -950641807#1 -950641807#1.20 -950641807#1.25 -950641807#1.30 -950641807#1.33 -950641807#1.38 -950641807#1.42 -950641807#1.47 950235729#2 950235729#3 -950235730#0 -950235730#0.38 -950235730#0.45 -950235730#0.52 950641812#2 950641812#3 950641809#0 -950641810 -950641810.14 -950641810.18 -950641810.22 -950641810.27 950235732#1 -950235733#0 -950641813#1 -950641813#1.14 -950641813#1.27 -950641813#1.43 -950641813#1.59 -950641815#1 -950641815#1.35 -950641815#1.42 -950641815#1.47 -950641815#0 -950641815#0.6 950641816#12 950641816#12.39 -950238188#4 -950238188#3 -950241847#7 -950241847#7.19 950553571 950553571.38 950553571.41 950553571.44 950553571.54 950553571.56 950553571.58 950553571.66 950553571.68 950553571.71 -950241847#4 950238186#1 950238186#2 45344285#0 950235732#5 950235732#5.16 951077734#0 950241846#2 45344285#2 950241823#0 950241823#1 950241823#1.18 950241823#3 -45344284#11 -45344284#10 -45344271#5 -902433322#2 -902433322#1 -902433322#1.57 -902433322#0 -902433322#0.69 -45344281#2 950241866#9 45344284#6 -45344282#3 -45344282#2 -45344282#2.18 -45344282#2.53 -950553577#2 950238191 950238191.37 -45344283#0 -45344282#0 -45344272#0 -45344273#40 -950235700#3 -950235700#2 -950235700#1 -950235700#0 45344336#5 -950235695#3 950235694#1 -950732875#1 -950732875#0 950235697#2 -950235695#0 950235699#1 950235699#3 -950235692#3 -950235692#2 -950235692#1 950235694#3 -950235703#3 -950235703#2 -950235703#2.9 -950235703#0 -950235703#0.13 -950235703#0.32 -950235703#0.55 -950235703#0.71 -950235703#0.86 -950235703#0.97 -950235703#0.108 950235699#5 -950238177#1 -950238177#1.15 950235705#0 950455048#0 950455048#0.35 950455048#0.40 950455048#0.45 950455051#0 950455051#0.11 950455051#0.26 950455051#0.42 950455050 950455050.9 950455050.11 950455050.13 950455050.15 950455050.26 950455050.29 950455050.31 950455050.34 950455050.49 950455050.55 950455050.63 951381436 951381436.26 951381436.34 951381436.39 951381436.45 -897252875#0 -897252875#0.4 -897252875#0.15 -897252875#0.35 897252876#3 897252876#4 897252876#5 897252876#5.34 897252876#6 897252876#7 897252876#8 897252876#9 45344324#0 45344329#3 45344329#4 45344329#5 45344329#6 45344327#0 45344327#1 903341090 45344335#5 45344335#7 45344335#8 -45344336#7 -45344336#7.6 -700254525#12 -700254525#12.32 -950400191 -950400191.5 -950400191.10 -950400191.16 -950400191.25 -950235691#0 -950235691#0.4 950235690#1 -45344335#3 -45344335#2 699875131#2 699875131#3 -950400192#1 -950235689#0 -700254525#6 950400195#0 950400195#1 950400195#1.6 950400195#1.15 950400195#1.29 950400195#1.40 950400195#1.46 950400195#1.55 950400195#1.60 950400195#1.66 950400195#1.74 950400195#1.81 950400195#2 950400195#2.6 -45344297#0 -45344297#0.11 699875130#3 699875130#3.37 -897172091#0 -45344296#0 -45344296#0.92 -45344296#0.150 -901885452#0 -897252884#0 -45344329#1 -45344329#0 45344291#3 45344291#3.27 45344291#3.54 45344291#3.63 45344291#3.68 45344291#3.139 -951370958 -45344288#0 -45344288#0.29 -45344294#3 897252857 897252858#2 897252858#3 -45344286#12 -45344286#11 951404497 951404497.20 951404497.26 951404497.33 951404497.38 951404497.43 -897252855#0 -45344287#0 -45344287#0.5 -45344287#0.14 -45344286#7 -702632122#4 -702632122#4.41 -702632122#4.57 -702632122#4.62 -702632122#4.67 -702632122#4.71 -702632122#4.73 -702632122#4.77 -702632123#3 -702632123#2 -702632123#1 -702632123#1.4 -702632123#0 45344272#13 45344272#13.4 45344272#13.35 45344298 896892974 971495602#11 971495602#12 971495602#12.26 971495602#12.77 951442813 951442812#0 -896786335#50 -896786335#49 -896786335#48 -896786335#48.15 -951354780 -951354780.15 -951354780.24 -896892981#10 -896892981#10.8 951354779 951354779.19 951354779.26 951354779.35 951354779.44 -896786335#46 -896786335#44 -896786335#44.9 -896786335#44.71 -896786335#43 -896786335#42 -896786335#42.22 -896786335#41 908869237 908869237.8 908869237.20 908869237.48 -908869250#3 -908869238 -908869238.92 -896786335#39 -896786335#39.27 -908869251 -908869251.5 -908869251.7 -908869251.10 -908869251.12 -908869251.30 -908869251.35 -908869251.40 -908869251.44 -908869251.48 -908869251.66 -908869251.70 -908869251.73 -908869251.76 -908869251.78 896786248#1 896786248#1.30 896786248#1.43 -951349917#1 -951349917#1.14 -951349917#1.29 -951349917#1.41 -951349917#1.59 -951349918 -951354772#1 -951354772#1.39 -951354772#1.50 -951354772#1.59 -951354772#0 -951354772#0.6 -951355289#1 -951355289#0 896893016#0 896893017#0 896893017#1 -896786335#28 -896786335#27 -896786335#27.19 -896786335#26 -896786335#24 -896893004#5 896893002 896893002.42 -896786335#22 -896786335#21 -896786335#21.41 -896786335#19 -951995495 -909024243#0 -909024244#0 -896786335#17 -896786335#17.2 -896786335#16 -896786335#16.7 -896786335#15 -896786335#14 -896786335#14.27 -896786335#13 -896786335#12 -896786335#12.15 -896786335#11 -896786311#13 -896786311#13.20 896786303#0 951983586#0 951983586#1 896786304#9 896786304#9.20 896786311#11 896786311#11.62 -951976011#1 -951976011#0 896786321#2 -896786320#3 -896786320#3.5 -896786320#1 -877396172#5 -877396172#3 -877396172#1 -877396172#1.57 951930664#5 896786316#2 896786317#0 951976005 951976006#0 951976006#1 -951976007 -896786335#6 -896786335#4 -896786335#4.18 -896786335#3 -896786335#3.10 -896786335#2 -896786335#1 -896786335#1.14 -896786335#0 877395784#17 877395784#17.13 877395784#17.29 877395784#19 951951639#0 951951639#1 951946802 951946795#2 -951946801 951951639#6 951951639#7 951951639#8 951951639#9 951951639#10 951951639#11 951946796#0 951946804 951946804.28 951946804.31 951946804.34 951946804.37 951946795#11 951946795#11.34 951946795#11.40 951946795#11.45 -951887683 -951887684 -951887682#6 -951887682#5 951887686#0 951887686#1 -671756019#4 -671756019#3 -671756019#2 -671756019#2.4 -671756019#1 -951961251#1 951961247#0 951961247#1 951961247#1.3 951961249#0 951961249#1 951961249#1.17 951961249#1.19 951961249#1.21 951961249#1.24 -951961255 -951961255.19 -951961255.22 -951961255.25 -951961255.27 951961248#1 -876509484#6 -876509484#6.3 -876509484#6.8 -876509484#6.12 -876509484#6.15 -876509484#5 -951878267#1 -951878267#0 -951878267#0.26 -951878267#0.29 -951878267#0.32 -951878267#0.34 951878264#2 -951878263#3 -951878266#4 -951878266#4.37 -951878266#2 -951878266#1 -951878266#1.39 -951878266#1.47"/>
</vehicle>
<vehicle id = "veh20" type= "veh_passenger" depart="21630" >
<route edges =" -45342801#4 45342799#23 45342799#25 45342799#25.7 45342799#25.22 45342799#26 45342799#27 45342799#27.15 45342799#27.20 45342799#27.25 45342799#27.36 972507120#0 972507120#2 45342812#0 45342812#1 -45342811#1 -45342811#0 -45342801#0 -45342798#1 -45342798#0 -45344273#21 -45344273#21.28 -951441770 45342810#5 -973399407#2 -45342830#1 44740885#16 44740885#17 902433295#0 902433295#0.35 -951370982#1 -951370982#0 -45344293#1 -45344293#1.78 -45344293#0 -45344273#13 -45344273#12 -45344273#11 -45344273#10 -45344273#10.42 -45344273#9 -45344273#8 -45344273#8.10 -45344273#7 -45344273#7.22 -45344273#6 -45344273#6.40 -45344273#6.59 -45344273#5 -45344273#5.6 -45344273#5.15 -45344273#4 -45344273#4.8 -45344273#4.37 -45344273#3 -45344273#3.6 -45344273#3.14 -45344273#3.31 -45344273#3.48 -45344273#2 -45344273#2.6 -45344273#2.24 -951404493 -951404493.17 -951404493.21 -951404493.24 -951404493.26 -951404493.29 -951404493.32 -951404493.38 -951404493.57 -951404493.66 -951404493.74 700249212#1 700249212#3 45342808#9 45342808#10 951370965#0 951370965#0.26 951370965#0.30 951370965#0.33 951370965#0.37 951370965#0.40 951370965#1 951370965#1.28 951370965#1.49 45344314#2 700249213#0 700249213#1 897252867#0 897252867#0.29 897252867#0.37 897252867#0.64 897252867#0.82 897252867#1 897252867#1.15 897252864#0 897252864#1 897252864#3 -897252871 -897252870 -45344310#2 -45378639#12 -45378639#12.97 -45378639#11 -45378639#10 -45378639#9 -45378639#8 -45378639#8.11 -951404483#2 -951404484#9 -951404484#9.20 -951404484#8 -951404484#6 -951404484#5 -951404484#4 -951404484#4.8 -951404484#4.11 -951404484#4.13 -951404484#4.15 -951404484#3 -951404484#3.5 -951404484#3.9 -951404484#3.14 -951404484#3.25 -951404484#3.32 -951404484#2 -951404484#2.19 -951404484#2.23 -951404484#2.26 -951404484#2.29 -951404476 -951404476.16 -951404476.32 -951404476.50 -951404476.59 -951404476.68 -951404476.84 -951404476.93 -951404476.101 -951404476.106 -951404476.113 971495602#7 971495602#7.32 971495602#7.56 971495602#8 971495602#8.24 971495602#8.86 45340579#6 45340579#7 45340579#7.32 45340579#7.82 45340579#7.134 45340579#7.159 45340579#7.185 -908560867#2 -908560867#2.13 -908560867#2.25 -951404468#1 -951404468#1.18 -951404468#1.33 -951404468#1.62 -951404468#1.64 -951404468#1.65 -951404468#1.66 -951404468#1.67 -951404468#1.69 -951404468#1.79 -951404468#1.80 -951404468#1.83 -951404468#1.85 -951404468#1.88 -951404468#1.96 -951404468#1.98 -951404468#1.99 -951404468#1.101 -951404468#1.102 -951404468#1.107 -951404468#1.112 -951404468#1.119 -951404468#1.121 -951404468#1.122 -951404468#1.124 -951404468#1.126 -951404468#1.129 -951404468#1.131 -951404468#1.133 -951404468#1.135 -951404468#1.138 -951404468#1.141 951404467#0 951404467#0.8 951404467#0.12 951404467#0.16 951404467#0.31 951404467#0.34 -951435496#1 -951435496#1.16 -951435496#1.17 -951435496#1.18 -951435496#1.19 -951435496#1.20 -951435496#1.22 -951435496#1.27 -951435496#0 -951435494 -951435494.8 -951435494.19 -951435494.25 -951435494.33 -951435494.43 -951435494.50 -951435494.55 -951435494.60 -951435494.65 -313316104#4 -313316104#4.4 -313316104#4.18 -313316104#4.31 -313316104#4.41 -313316104#4.56 -313316104#3 -313316104#2 -313316104#2.13 -313316104#2.35 -313316104#2.44 -313316104#1 -313316104#0 -313316082 -45378649#12 896786247#0 896786247#0.38 896786247#1 896786247#2 896786247#2.15 -908869242 -908869242.9 -908869242.25 -908869243#0 -908869244#0 -908869250#1 -908869250#0 -908869250#0.11 -908869250#0.41 -45378649#10 -45378649#10.20 -951355292 -951355298#1 -951355298#1.5 -951355298#1.10 -951355298#0 -951355298#0.4 -951354759#1 -951354759#1.6 -951354759#0 -951354759#0.4 -951354759#0.15 -951354759#0.20 -951354759#0.24 908869241#0 908869241#0.15 908869241#0.77 -908869239 -908869239.8 -908869239.11 -908869239.13 -908869239.15 -908869239.18 951354762#0 951354762#0.9 951354762#0.12 951354762#0.15 951354762#0.18 951354762#0.94 951354762#0.96 951354762#0.97 951354762#0.99 951354762#0.100 951354762#0.102 951354762#0.106 951354762#0.107 951354762#0.109 951354762#0.110 951354762#0.112 951354762#0.127 951354762#0.129 951355295 -896786262#3 -896786262#3.9 -896786261 -896786264 -896786264.69 -896786264.122 -896786265#7 -896786265#7.11 951354765#0 951354763#1 951354763#2 951354763#3 951995494#0 -951995491#2 951995493#0 951354763#5 -951995492#0 -951995491#0 -896786266#12 -896786266#11 -896786266#11.7 909024253#0 951995490#0 909024242 -896786293#6 -896786293#5 -896786293#5.20 -896786293#4 -896786293#3 -896786293#3.1 -45378665#2 -45378665#2.36 -45378665#1 909024239#0 909024239#1 909024239#1.17 -909024237#1 -909024237#1.34 -909024237#1.71 -909024237#1.74 -909024237#1.78 -909024237#1.82 877398366#1 877398366#1.15 877398366#2 877398366#2.36 877398366#3 951995475#4 904371460#5 -896786328#3 -896786328#3.70 -896786328#2 -896786328#2.49 -896786328#1 -896786328#0 -896786328#0.177 -877395784#20 -877395784#19 -877395784#17 -877395784#17.8 -877395784#17.24 -877395784#15 951946833#0 -951946816#11 -951946816#10 -951946823 951946821#1 951946822 -951946816#7 -951946820#1 -951946820#0 951946819#1 951946818#3 951946818#3.2 951946818#3.6 951946817#4 951946817#5 951946833#4 951946833#5 -951951632#2 -951951632#2.4 -951951632#2.8 -951951632#2.12 -951951632#0 951946805#2 951946805#3 951946836 951946835#5 951946835#5.21 951946835#5.25 951946835#5.28 951946805#5 951946837#2 951946834#1 -951946833#7 951951631#0 951951631#1 951951635#2 -951946806#8 -951946806#7 951946807 -951946806#2 -951946806#1 -951946806#1.48 -951946806#1.55 -951946806#1.61 -951946806#1.69 -951946806#1.82 -951946806#1.90 -951946806#1.98 -951946806#0 -952365020 -952365021 -951878231#2 951868619#0 951868620#0 -951868611#1 -951878231#0 951951645 -951951643#3 -951951643#2 876509484#2 876509484#3 -951951650 -951951648#2 -951951648#1 -951951648#0 -951951643#0 -951878263#7 -951878263#6 -951878263#5 -951878269#15 951891772#3 -951961237 951891766#3 951878270#0 951878270#0.33 951878270#0.36 951878270#0.39 951878270#0.42 951930613 -951878269#9 -951930614 951878270#4 -951887656#2 951891765#1 951891765#2 951891765#3 -951887660#3 -951887660#2 -951887663#3 951887661#3 951878266#0"/>
</vehicle>
</routes>
