<?xml version="1.0" encoding="UTF-8"?>
<routes xmlns:xsi="http: // www.w3.org/2001/XMLSchema-instance" xsi:noNamespaceSchemaLocation="http: // sumo.dlr.de/xsd/routes_file.xsd">
<vType id="veh_passenger" vClass="passenger"/>

<vehicle id = "veh0" type= "veh_passenger" depart="0" >
<route edges =" -813722269#3 -813722269#3.7 -813722269#3.48 -813722269#3.84 -813722269#3.86 620762213#0 620762213#0.9 620762213#0.88 620762212#0 620762212#0.8 620762212#0.52 6343949#6 6343949#7 6343949#8 6343949#8.52 6343949#10 6343949#10.49 6343949#12 6343949#12.47 -525497324#3 -525497324#2 243349944#4 243349944#4.53 243349944#6 243349944#7 -460419011#3 -460419011#2 6464126#3 6464126#3.49 6464126#5 -460419028#3 243349338#0 243349338#0.18 243349338#1 243349338#2 243349338#3 243349338#3.49 243349338#5"/>
</vehicle>
<vehicle id = "veh1" type= "veh_passenger" depart="0" >
<route edges =" -6457203#16 -6457203#16.59 975126260#0 975126260#0.49 -6505136#16 6368504#5 6368504#5.48 6368504#7 6368504#7.50 -6513783#8 -6513783#7 37657905#3 37657905#3.48 37657905#5 37657905#5.10 37657905#5.46 37657905#7 37657905#7.49 476409329 -6383185#5 6384373#1 6384373#2 6384373#2.45 6384373#2.56 -65588097#1 -65588097#1.119 337818330 6463035#0 6463035#0.14 6463035#0.38 6463035#3 -6495801#0 -185485132#12 -185485132#12.125 -185485132#11 -185485132#11.16 243349945#9 243349945#9.50 -6494975#8 -6494975#7 -6494975#6 -6494975#6.81 256994205#3 428246847#0 428246847#0.8 428246847#0.22 6386110#0 6386110#0.16 6386110#0.25 6386110#0.55 -243349338#6 -243349338#6.14"/>
</vehicle>
<vehicle id = "veh2" type= "veh_passenger" depart="0" >
<route edges =" -6522868 -6403883#7 -6403883#6 -6403883#5 -6403883#4 -6403883#3 -6403883#2 158882505#7 158882505#8 8111709#0 8111709#0.47 8111709#2 8111709#2.49 8111709#4 8111709#4.49 -6513783#5 6384359#8 6384359#9 6384359#9.26 -6381494#3 -6381494#3.43 6463017#6 6463017#6.48 -6386837#0 337739268 337739268.124 337739267#0 337818462 337818462.3 337818462.6 337739271#1 337739271#1.6 337739269#0 -460419011#4 243349944#8 -801995081#5 -801995081#5.197 -801995081#5.209 -801995081#2 -801995081#2.109 -801995081#0 243339793#4 243339793#5 243339793#6 243339793#6.50 243339793#6.74 -22917112 -185485118#1 6514312#0 6514312#0.70 -6523501#6 -6523501#6.6 185485127#1 -6494970#4 -6494970#4.172 -6494970#2 -6494970#2.4 -6494970#2.100 6358721#0 6358721#0.9 6415147#4 6415147#5 6415147#6 6351349#2 6351349#3 6351349#3.107 6351349#5 -185483733 -6414318#4 -157167355#0"/>
</vehicle>
<vehicle id = "veh3" type= "veh_passenger" depart="0" >
<route edges =" 817434294 817434294.10 817434294.36 817434294.44 817434294.63 817434294.119 6343949#0 6343949#0.7 6343949#0.86 6343949#3 6343949#3.9 6343949#3.49 620762212#3 6430729#6 6430729#6.47 6430729#6.48 6430729#9 6430729#9.48 6430729#11 6430729#11.51 6430729#13 6430729#13.48 6430729#15 6430729#15.48 6430729#17 6430729#17.51 -620762224#0 -66558981#7 -66558981#7.65 -66558981#7.83 -66558981#7.105 -66558981#7.123 -66558981#2 -66558981#2.131 -66558981#2.234 525497323#2 525497323#2.81 -481291488#2 -481291488#1 -481291488#0 -481291488#0.69 -481291488#0.82 -6447971#10 -6447971#10.11 -6447971#9 -6447971#8 -6447971#7 -6447971#6 -6447971#5 -6447971#4 169917351#6 169917351#7 169917351#7.49 169917351#9 169917351#9.48 169917351#9.87 169917351#12 169917351#12.9 169917351#12.42 169917351#12.90 -6360239#3 -6360239#3.6 -6360239#3.69 -6360239#3.102 6487445#0 6487445#0.8 6415147#0 6415147#0.61 6449462#3 6449462#3.7 6449462#3.50 6449462#3.60 6449462#3.72 6449462#3.87 795669782#0 795669782#0.54 795669782#2 6371720#2 6371720#3 157167355#0"/>
</vehicle>
<vehicle id = "veh4" type= "veh_passenger" depart="3605" >
<route edges =" -814326475#2 -814326475#2.9 -814326475#2.24 -814326475#2.41 -814326475#2.70 -814326475#2.91 -6456052#5 -6456052#5.10 -6456052#5.36 -6456052#5.120 428341734#0 428341734#0.10 428341734#0.39 428341734#0.88 428341734#4 428341734#4.8 428246439#0 428246439#0.14 -569505978#1 -569505978#1.10 -569505979 -569505979.32 -569505979.79 337673338#0 337673338#0.14 185882764 185882764.13 185882764.14 164418942#0 164418942#0.4 164418942#0.7 164418942#0.9 164418942#0.11 164418942#0.14 164418942#0.15 337673339 826314456#0 826314456#0.9 826314456#0.50 826314456#0.96 826314456#0.103 349901822#0 349901822#0.9 96029553#0 96029553#0.9 96029553#0.15 96029553#0.59 8071900#0 8071900#0.7 8071900#0.18 8071900#0.88 8071900#4 8071900#4.7 8071900#4.49 8071900#4.88 6440348#0 6440348#0.6 6440348#0.84 6440348#0.93 6440348#0.107 6440348#0.114 6440348#6 6440348#6.25 6440348#8 6440348#8.12 6440348#8.47 6440348#8.88 6440348#8.91 6343949#12 6343949#12.47 -525497324#3 620762218#5 620762218#5.18 620762218#5.80 -66558981#7 -66558981#7.65 -66558981#7.83 -66558981#7.105 -66558981#7.123 243349944#6 -481291488#4 -481291488#4.47 40416132#0 40416132#0.19 -460419011#2 6464126#3 6464126#3.49 6464126#5 -460419028#3 -460419028#2 -460419028#2.56 -460419028#2.72 -460419028#2.102 -460419028#2.140 396055524#0 396055524#0.9 396055524#0.30 396055524#0.54 396055524#0.65 6360256#5 6360256#6 6360256#6.122 243349944#13 243349944#13.47 243349944#13.51 22917113#6 243349945#6 243349945#6.48 243349945#6.88 -185485132#10 -185485132#9 -185485132#8 -185485132#8.81 256994205#2 256994205#2.24 256994205#2.72 -6494975#4 -6494975#4.53 243349338#5"/>
</vehicle>
<vehicle id = "veh5" type= "veh_passenger" depart="3605" >
<route edges =" 6457203#17 6457203#18 6457203#18.8 6457203#18.11 6457203#20 6457203#20.10 6457203#20.25 6457203#20.27 6457203#23 6457203#23.25 6457203#23.175 460423547 6363153#0 -157284449#1 242516209#2 242516209#2.53 37657904 603522176#0 603522176#0.48 -6513783#10 603522173#2 603522173#2.51 -6381494#14 -6381494#14.47 -6381494#14.172 -6368504#11 -6368504#11.50 -6368504#11.52 -6513783#8 -6513783#7 37657905#3 37657905#3.48 37657905#5 37657905#5.10 37657905#5.46 336904472#3 336904472#3.37 -170683231#15 -170683231#15.34 -170683231#15.47 -170683231#15.61 -791722143#0 -791722143#0.80 476409332#0 476409332#0.44 476409332#2 476409332#2.43 -6460085#6 -6460085#6.27 -170683231#7 -65588097#5 -65588097#5.172 -65588097#3 -65588097#3.73 -6384373#4 -6384373#4.41 -6384373#4.51 -6460085#1 -6460085#1.27 -6460085#1.86 -6460085#1.119 465799093#0 465799093#0.8 465799093#0.46 465799093#0.91 337818330 428315592#0 428315592#0.12 428315592#0.53 428315592#0.95 -6448612#3 -6448612#3.16 6463035#3 6463035#4 6463035#4.46 6463035#4.48 6463035#7 6463035#8 6463035#8.49 -6349133#0 -6472289#4 805658294#6 805658294#6.47 160624558#3 160624558#3.42 6353177#0 6353177#0.8 6353177#0.44 6353177#0.135 6463035#12 6463035#12.7 6463035#14 -6369950#0 -336908262#6 -359671039#10 -359671039#10.86 805658294#9 805658294#9.71 808266757#0 808266757#0.7 352434874#4 352434874#4.20 352434874#4.33 352434874#4.43 352434874#4.55 352434874#4.68 352434874#4.74 6474773#1 6474773#1.19 6474773#1.72 6474773#1.81 -263665040#4 -263665040#4.9 -263665040#4.18 -263665040#4.27 -263665040#4.36 -263665040#4.45 -263665040#4.54 -263665040#4.63 -263665040#4.72 -263665040#4.82 -263665040#3 -263665040#3.11 -263665040#3.21 -263665040#3.100 -243349945#20 -352434874#2 -352434874#1 -6447445#16 -6447445#15 -6447445#14 160624558#0 160624558#0.9 160624558#0.16 -243349944#24 -243349944#24.50 -6472289#1 -6447445#11 -6447445#10 -6447445#10.48 -6494975#6 -6494975#6.81 256994205#3 428246847#0 428246847#0.8 428246847#0.22 6386110#0 6386110#0.16 6386110#0.25 6386110#0.55 -243349338#6 -243349338#6.14"/>
</vehicle>
<vehicle id = "veh6" type= "veh_passenger" depart="3605" >
<route edges =" -6522868 6403883#8 -6428544#15 -6428544#15.8 -6462093 -6462093.45 -6462093.54 -6462093.65 -6462093.80 -6462093.95 -6462093.117 -6462093.128 -6462093.141 -6462093.175 6323849#2 -160552467#11 -160552467#11.13 -160552467#11.23 -160552467#11.33 -160552467#11.44 -160552467#11.54 -160552467#11.62 -160552467#11.70 -160552467#11.80 -160552467#11.88 -160552467#11.115 -160552467#11.127 -160552467#10 -160552467#10.17 -160552467#10.28 -160552467#10.38 -158882511#4 6411908#5 6411908#5.89 6411908#5.98 6411908#5.108 -8071379#1 -8071379#1.46 -6346524#3 -6346524#3.8 -6346524#3.13 -6346524#3.18 -6346524#3.26 -6346524#3.31 -6346524#3.36 -6346524#3.41 -6346524#3.51 -6346524#2 -6346524#1 -158882505#2 -6368665#1 -6368665#1.49 -6368665#1.91 -6368665#1.93 171739214#11 171739214#12 171739214#13 171739214#14 171739214#15 171739214#15.31 171739214#15.57 171739214#20 171739214#21 171739214#21.8 171739214#21.28 171739214#21.32 6457203#1 6457203#1.8 6457203#1.16 6457203#1.38 6457203#1.55 6457203#5 6457203#5.28 6457203#5.42 6457203#5.68 6457203#5.82 6457203#5.104 -158882517#7 -158882517#7.6 -158882517#7.8 -158882517#7.10 -158882517#7.11 -158882517#7.13 -158882517#7.33 -158882517#5 6403883#3 158882511#8 6469837#4 6469837#4.92 6368504#1 6368504#1.33 6368504#3 6368504#3.46 -6505136#15 -6505136#14 -6505136#13 -6505136#13.115 -6505136#12 -6505136#12.73 -6505136#12.84 -6505136#12.102 -6505136#12.111 -6505136#12.122 6384359#4 6384359#4.13 6384359#4.31 6384359#4.51 6464042#3 6464042#3.16 6464042#3.33 6464042#3.50 6464042#3.56 8111709#4 8111709#4.49 757399066#0 757399066#0.51 757399066#0.87 -6381494#6 -6381494#6.57 -6381494#6.77 -6381494#6.94 -6381494#3 -6381494#3.43 6463017#6 6463017#6.48 6386837#1 6386837#2 6384359#12 6384359#12.14 6384359#12.24 6384359#12.93 8071925#0 8071925#0.9 8071925#0.55 8071925#2 8071925#2.36 8071925#2.74 460399791#0 460399791#0.9 460399791#0.31 460399791#0.97 460399791#0.99 92170540#0 92170540#0.10 396055523#1 396055523#1.42 396055523#1.177 396055523#1.183 -337739269#4 -337739269#4.9 481291013#0 481291013#0.16 481291013#0.30 481291013#0.70 481291013#0.75 481291013#0.79 481291013#0.109 481291013#0.113 -481291015#1 -481291015#1.3 -481291015#1.42 -292812445#12 -292812445#12.49 337739268 337739268.124 337739267#0 337818462 337818462.3 337818462.6 337739271#1 337739271#1.6 337739269#0 -460419011#4 243349944#8 -801995081#5 -801995081#5.197 -801995081#5.209 -801995081#2 -801995081#2.109 -801995081#0 243339793#4 -460419028#4 6464126#6 6464126#7 6464126#7.50 6464126#9 6464126#9.46 -185485132#3 -185485132#3.101 243339793#11 243339793#11.47 6494975#1 6494975#1.9 6464126#13 6464126#13.49 6386110#4 6386110#4.26 243339793#15 243339793#15.46 -6472293#6 -6472293#6.7 -8071924#3 -8071924#3.39 -8071924#3.51 -8071924#0 -8071924#0.15 -481291012#7 -481291012#7.22 -481291012#6 -481291012#6.8 -481291012#3 -481291012#3.26 -185485132#1 -185485132#1.196 926425191#0 926425191#0.5 -6494970#6 -6494970#6.6 -6494970#4 -6494970#4.172 169917351#25 169917351#25.7 169917351#25.72 336908264#3 428247197#0 428247197#0.12 -460421482#10 -460421482#10.13 -460421482#10.46 -460421482#10.56 -460421482#10.76 6358721#0 6358721#0.9 6415147#4 6415147#5 -6489809#1 -6489809#1.47 256996977#4 256996977#4.22 256996977#4.24 256996977#4.38 256996977#6 256996977#6.43 256996977#6.78 6354836#0 6354836#0.6 6354836#1 6354836#1.40 -642753173 642753174 -6384264 -295783215#1 14374224#0 14374224#0.36 14374224#0.80 14374224#0.83 256997441#3 256997441#3.6 256997441#3.53 6351349#5 -185483733 -6414318#4 -157167355#0"/>
</vehicle>
<vehicle id = "veh7" type= "veh_passenger" depart="3605" >
<route edges =" -813722269#3 -813722269#3.7 -813722269#3.48 -813722269#3.84 -813722269#3.86 620762213#0 620762213#0.9 620762213#0.88 57883609#0 57883609#0.6 57883609#0.57 65588100#0 65588100#0.63 -6343949#6 -6343949#5 -6343949#5.49 -6343949#5.90 813722270#0 813722270#0.7 813722270#0.42 813722270#0.74 813722270#0.75 813722270#0.121 6430729#3 6430729#3.9 6430729#3.48 620762212#4 620762212#4.122 171739207#2 171739207#2.46 -65588100#6 -65588100#6.7 6430729#9 6430729#9.48 -8071898#1 -8071898#1.60 -8071898#1.73 -8071898#1.89 -8071898#1.91 292812445#0 292812445#0.35 292812445#0.50 -65588093#3 6430729#13 6430729#13.48 6440348#14 6464042#0 6464042#0.76 6464042#2 6464042#2.9 6384359#6 6384359#6.48 -6513783#4 -6513783#4.21 -6513783#4.23 -6513783#4.43 -6513783#4.80 -6513783#1 -6513783#1.10 962517344 962517344.33 -6381494#0 -620762224#1 -620762224#0 -620762218#5 -620762218#5.44 -620762218#5.106 -525497324#2 -525497324#1 -525497324#0 525497323#0 525497323#0.50 -6481166#12 -6481166#11 -6481166#11.122 -6481166#11.125 6464138#14 -481291488#1 -481291488#0 -481291488#0.69 -481291488#0.82 -6447971#10 -6447971#10.11 486874837#2 486874837#2.47 -460419014 -460419014.67 -6425689#1 -6425689#1.49 -6447971#8 -6447971#7 -6447971#6 6467507#4 6467507#4.48 6467507#6 6467507#6.51 6380913#6 6380913#6.41 6380913#10 6380913#10.59 460419008#2 460419008#2.37 460419008#2.41 460419008#2.47 460419008#2.65 -460419024#7 -460419024#7.10 -460419024#7.16 -460419024#7.29 -6425675 6380913#13 6380913#14 481291014#0 481291014#0.53 -460419028#7 -460419028#7.7 -460419028#7.33 -460419028#7.45 243339793#5 -6360256#0 -6360256#0.8 486875123#0 486875123#0.56 486875123#0.88 -185485118#1 6514312#0 6514312#0.70 -6523501#6 -6523501#6.6 -185485127#0 -6467507#14 -6467507#14.73 -6467507#12 -6467507#12.14 -6467507#12.24 -6467507#12.91 6516509#8 6516509#8.7 6516509#8.85 -6507809#9 -6507809#9.9 -6507809#9.50 -6507809#6 -6507809#6.47 -6507809#4 -6507809#3 6481166#5 6481166#6 -465971499#1 -465971499#1.88 -901419467#2 -901419467#2.9 -901419467#2.49 -901419467#2.54 -901419467#2.71 -901419467#2.91 -353690160#5 -353690160#5.7 -353690160#5.91 -353690160#2 -353690160#2.8 -353690160#2.90 -893868546#2 -893868546#2.10 -893868546#2.197 876005346#0 876005346#0.6 876005346#0.88 876005346#3 876005346#4 876005346#4.5 876005346#4.68 -6440364#9 -6440364#9.7 -6440364#9.83 -901474739#6 -901474739#6.7 -901474739#6.37 -901474739#6.73 -901474739#2 -901474739#2.10 -901474739#2.115 -893868550#2 -893868550#2.7 -893868550#2.86 901477545#0 901477545#0.8 901477545#0.89 -6346769#4 -6346769#4.6 -6346769#4.27 -6346769#4.65 -6346769#4.102 256996974#3 256996974#3.6 256996974#3.29 256996974#3.56 256996974#3.86 256996974#6 256996974#6.9 256996974#6.21 256996974#6.40 256996974#6.89 256996974#11 256996974#11.6 256996974#11.33 256996974#11.65 256996972 256996972.16 256996972.70 881403606#0 881403606#0.12 881403606#0.42 881403606#0.83 881403606#0.85 22917665#0 22917665#0.7 -6445835#1 -6445835#1.53 256996973#0 256996973#0.33 256996973#0.45 256996973#0.49 256996975#0 256996975#0.50 256996975#0.62 256996975#0.65 256996975#0.91 6461236#0 6461236#0.9 6461236#0.24 6461236#0.44 6461236#0.58 6461236#0.60 6384260#3 6384260#3.54 -6487445#4 -6487445#4.15 -6487445#4.55 -6487445#1 -6487445#1.78 256996976#3 256996976#3.7 256996976#3.76 6452520#0 6452520#0.8 6452520#0.105 169917351#19 169917351#19.6 169917351#19.71 -6523501#2 -6523501#2.5 -6523501#2.101 6497081#0 6497081#0.8 6497081#2 6497081#2.38 6497081#2.47 6497081#2.53 6497081#2.60 6497081#2.67 6497081#2.70 6497081#2.74 6497081#2.81 6497081#2.120 460421481#1 460421481#1.61 460421481#1.85 -428247194#1 -428247194#1.9 -428247194#1.28 -157167355#3 -157167355#3.5 -157167355#3.43 -6414318#3 6497081#8 -6371720#2 -795669782#2 -6414318#0 -6414318#0.76 -6414318#0.81 460418987#0 460418987#0.4 460418987#0.8 -6414273#1 -6414273#1.22 -460418992#4 -460418992#4.6 -460418992#4.125 -460418992#2 -460418992#2.50 -460418992#2.92 460418994#0 460418994#0.9 460418994#0.44 460418994#0.71 460418978#0 460418978#0.8 460418978#0.76 460418978#3 460418978#3.9 460418978#3.49 369455641#1 369455641#1.28 369455641#1.78 512126021#0 512126021#0.7 512126021#0.31 512126021#0.66 157167355#0"/>
</vehicle>
<vehicle id = "veh8" type= "veh_passenger" depart="7210" >
<route edges =" -813722269#3 -813722269#3.7 -813722269#3.48 -813722269#3.84 -813722269#3.86 620762213#0 620762213#0.9 620762213#0.88 -800744530#5 -800744530#5.9 -800744530#5.19 -800744530#5.73 -800744530#5.84 -800744530#5.118 800744529#0 800744529#0.7 800744529#0.52 800744529#0.89 -349901821 349901822#0 349901822#0.9 349901822#2 349901822#2.21 332092195#0 332092195#0.9 332092195#0.74 460423532#0 460423532#0.2 620762218#0 620762218#0.55 620762218#0.66 620762218#0.68 620762218#0.81 -6440348#7 -6440348#7.9 243349944#0 243349944#0.4 243349944#0.20 243349944#0.49 243349944#4 243349944#4.53 243349944#6 243349944#7 -460419011#3 40416132#1 40416132#1.90 -801995081#2 -801995081#2.109 6464126#5 -460419028#3 243349338#0 243349338#0.18 243349338#1 243349338#2 243349338#3 243349338#3.49 243349338#5"/>
</vehicle>
<vehicle id = "veh9" type= "veh_passenger" depart="7210" >
<route edges =" -6457203#16 -6457203#16.59 -6457203#15 -6457203#15.22 -6457203#14 -6457203#14.67 -6457203#13 -6457203#13.26 8111707#0 8111707#0.47 -6505136#14 8111708#3 8111708#3.48 8111708#3.86 -603522174#3 -603522174#3.8 -603522174#1 -603522174#0 603522173#0 603522173#0.48 -6513783#9 -6513783#8 -170683231#20 -170683231#20.51 -170683231#18 -170683231#18.37 -170683231#18.49 -170683231#15 -170683231#15.34 -170683231#15.47 -170683231#15.61 791722143#1 476409329 6383185#6 -170683231#9 -170683231#9.43 6460085#6 6460085#6.62 6460085#7 6460085#7.14 6460085#7.41 6460085#9 6460085#9.41 6460085#9.71 6523125#0 65588097#10 65588097#10.40 6522860#1 6522860#2 6522860#2.23 6522860#2.40 6522860#2.46 6522860#2.55 6522860#2.62 6522860#2.67 6522860#2.76 6522860#2.89 -6495798#6 -6495798#6.39 -6495798#4 -6495798#3 -476409332#6 -6448612#8 -170683231#3 -6495798#1 -6495798#1.232 -6495798#1.266 428315592#5 428315591#0 428315591#1 428315591#2 428315591#2.6 428315591#2.15 428315591#2.25 428315591#2.59 428315591#2.76 -912599281#1 -912599281#1.10 -912599281#1.25 -912599281#1.45 -6349021#2 -6349021#2.11 6464371#0 6464371#0.8 6464371#0.32 40416130#0 40416130#1 40416130#2 -6353172#0 -170683665#8 -170683665#7 -6349133#1 -6463035#9 -6463035#9.48 -279467136#0 -279467136#0.18 -279467136#0.24 -805680044#10 6356676#0 6356676#1 -170683665#2 -170683665#2.49 -170683665#2.51 -170683665#2.95 -6495801#1 -6463035#3 -6463035#2 -6463035#2.46 -6463035#2.71 -337818330 -465799093#3 -465799093#3.8 -465799093#3.52 -465799093#3.90 460399791#0 460399791#0.9 460399791#0.31 460399791#0.97 460399791#0.99 -537678339#1 -537678339#1.11 338701493#0 338701493#0.9 396055523#1 396055523#1.42 396055523#1.177 396055523#1.183 396055523#5 396055523#5.8 396055523#5.42 243349945#0 243349945#0.6 243349945#0.83 6360256#10 6360256#10.7 6360256#10.57 6360256#10.71 6360256#10.113 6360256#10.122 6360256#10.124 6360256#14 6360256#14.7 6360256#14.133 805680044#1 805680044#1.7 805680044#1.49 805680044#1.91 805680044#5 805680044#5.6 805680044#5.49 -185485132#12 -185485132#12.125 805658294#0 805658294#0.38 805658294#0.52 805658294#2 805658294#2.39 -243349942#1 -243349942#1.104 -243349945#12 -243349945#12.49 -6494975#8 -243349944#18 -243349944#18.47 -185485132#9 6447445#7 6447445#7.46 6447445#9 6447445#9.49 -22760521#2 -22760521#2.81 -22760521#2.121 428246847#0 428246847#0.8 428246847#0.22 6386110#0 6386110#0.16 6386110#0.25 6386110#0.55 -243349338#6 -243349338#6.14"/>
</vehicle>
<vehicle id = "veh10" type= "veh_passenger" depart="7210" >
<route edges =" -6522868 -6403883#7 -6403883#6 -6403883#5 -6403883#4 158882511#8 158882511#9 158882511#9.51 -6457203#11 -6457203#11.20 -6457203#11.36 -6457203#11.44 -6457203#11.89 -6457203#11.100 -158882517#7 -158882517#7.6 -158882517#7.8 -158882517#7.10 -158882517#7.11 -158882517#7.13 -158882517#7.33 -158882517#5 -6403883#2 158882505#7 -6469837#1 -6469837#1.51 -171739214#20 -6403874#2 -6403874#2.90 337668916#10 337668916#11 337668916#11.20 337668916#11.35 -292812446#5 -292812446#4 -292812446#4.6 -292812446#4.35 -292812446#4.44 -292812446#4.56 -292812446#4.99 -292812446#4.111 292812445#0 292812445#0.35 292812445#0.50 6505136#0 6505136#0.18 6505136#0.27 6505136#0.73 6505136#0.87 6505136#0.118 6463017#0 6463017#0.48 6464042#2 6464042#2.9 6384359#6 6384359#6.48 6384359#8 6384359#9 6384359#9.26 -6381494#3 -6381494#3.43 -6381494#1 -6381494#0 292812445#9 292812445#9.49 337739268 337739268.124 337739267#0 337818462 337818462.3 337818462.6 337739271#1 337739271#1.6 337739269#0 337739269#1 337739269#1.30 337739269#3 337739269#3.69 396055523#5 396055523#5.8 396055523#5.42 396055523#7 396055523#7.122 396055523#9 396055523#9.6 396055523#9.20 396055523#9.54 396055523#11 396055523#11.17 396055523#11.23 396055523#11.42 396055523#11.62 396055523#11.85 396055523#11.96 396055523#11.121 460419028#0 460419028#0.11 460419028#0.49 460419028#0.79 460419028#0.95 460419028#3 -6464126#5 -801995081#0 -801995082 481291014#0 481291014#0.53 353690153#0 353690153#0.8 353690153#0.25 353690153#0.87 486875123#0 486875123#0.56 486875123#0.88 481291012#0 481291012#0.24 481291012#0.32 481291012#2 481291012#2.49 6494975#0 6494975#0.105 243339793#13 243339793#13.49 243339793#15 243339793#15.46 -6472293#6 -6472293#6.7 8071924#4 6501822#7 6441276#0 6441276#0.41 359671040#0 359671040#0.40 6449970#9 6336174#4 6506505#5 6464130#5 -243349331#1 -243349331#1.102 -243349331#0 -243349331#0.131 32143377#0 32143377#0.40 -243349941#2 -6425683#3 -6425683#3.40 -6425683#1 -6506505#2 -6506505#1 -6506505#1.22 -6467510#1 -6467510#1.38 -6449970#2 -6449970#1 -6449970#1.18 -6507818#2 -6507818#0 6501822#1 6501822#2 6501822#3 6463541#0 6396312#2 -185485117#2 -185485117#1 -185485117#0 -185485117#0.47 -926425191#3 926425193#2 926425193#2.6 926425193#2.94 926425193#2.182 926425193#2.204 926425193#2.206 -185485127#3 -185485127#3.10 -6494970#4 -6494970#4.172 -6494970#2 -6494970#2.4 -6494970#2.100 6358721#0 6358721#0.9 6415147#4 6415147#5 6489809#2 -295783215#1 14374224#0 14374224#0.36 14374224#0.80 14374224#0.83 14374224#4 14374224#4.44 14374224#4.54 14374224#4.84 14374224#4.122 -6414318#4 -157167355#0"/>
</vehicle>
<vehicle id = "veh11" type= "veh_passenger" depart="7210" >
<route edges =" 817434294 817434294.10 817434294.36 817434294.44 817434294.63 817434294.119 816616072#4 816616072#4.7 816616072#4.62 816616072#4.121 816616072#8 816616072#8.6 816616072#8.121 6346526#0 6346526#0.6 6346526#0.99 6346526#0.121 -337668916#3 -337668916#3.10 -337668916#3.49 -337668916#3.92 -6463013#2 -6463013#2.8 -6463013#2.38 -6463013#2.42 -6463013#2.60 -6463013#2.70 -6463013#2.90 428246435#0 428246435#0.10 428246433 428246433.72 428246432#0 428246432#0.13 428098981 428098987#0 428098987#0.22 428098987#0.51 428098984#0 428098984#0.14 6464391#0 6464391#0.12 6464391#0.77 6464391#3 6464391#3.6 6464391#3.75 -6358524#5 -6358524#5.5 -6358524#5.96 171739214#0 171739214#0.4 171739214#0.56 -752851600#3 -752851600#3.6 -752851600#3.8 -752851600#3.9 -752851600#3.49 -752851600#3.56 -6384942#1 -6384942#1.10 -548654006#1 -548654006#1.9 -548654006#1.38 -548654006#1.47 -548654006#1.55 -742713664#1 -742713664#1.7 -742713664#1.9 -742713664#1.19 -6358498#1 -6358498#1.87 -6474762#2 -6474762#2.6 -6474762#2.9 -6474762#2.12 6374789#0 6374789#0.39 6374789#0.75 6374789#0.100 -749754754#0 -749754754#0.11 -749754755 -749754755.11 -749754755.23 -749754755.34 -749754755.44 -749754755.57 -749754755.70 -749754755.72 -749754755.82 -749754755.92 -749754755.102 6479778#0 6479778#0.15 6479778#2 749754758#0 749754758#0.30 749754758#0.125 749754758#2 749754758#2.4 749754758#2.121 749754758#5 749754758#5.6 749754758#5.124 6414229#8 6414229#8.3 6414229#8.47 6374789#11 6374789#11.72 -6346308#5 -6346308#5.48 -6346308#3 -6346308#3.49 -6366765#4 6368518#2 6368518#2.46 6368518#4 6368518#4.46 8071894#0 8071894#1 8071894#2 8071894#3 8071894#4 8071380#0 8071380#0.4 8071380#0.8 8071380#0.20 8071380#0.54 8071380#0.57 8071380#0.60 8071380#0.63 6400858#0 6400858#0.3 6400858#0.7 6400858#0.11 6400858#0.15 6400858#0.58 6523130 -337099385#0 -337099385#0.153 -337099385#0.159 -6368665#5 -6368665#5.9 -6368665#5.17 -6368665#5.26 -6368665#5.35 -6368665#5.53 158882511#1 158882511#1.35 -6346524#2 158882517#2 -6411908#3 158882505#4 158882505#4.31 -160552467#7 -160552467#7.43 -160552467#7.73 -160552467#7.78 -160552467#5 -160552467#5.18 -160552467#5.25 -160552467#5.30 -160552467#5.63 -160552467#5.85 -160552467#0 171739207#2 171739207#2.46 -65588100#6 -65588100#6.7 -65588100#4 -65588100#4.73 -65588100#4.110 6343949#7 8071898#3 620762214 332092195#0 332092195#0.9 332092195#0.74 460423532#0 460423532#0.2 620762218#0 620762218#0.55 620762218#0.66 620762218#0.68 620762218#0.81 620762218#3 620762218#3.7 -525497324#2 -525497324#1 -525497324#0 -6512920#11 -6512920#11.12 -6512920#11.49 -6512920#11.62 -6512920#11.76 -6512920#11.147 -6512920#7 -6512920#7.4 -6512920#7.122 -6512920#7.124 6464138#12 6464138#12.51 -6481166#10 -6481166#10.6 -6481166#10.8 -6481166#10.120 353690154#15 353690154#15.50 243339793#0 243339793#0.48 -460419011#0 -460419011#0.11 -486874837#3 -486874837#3.48 -6447971#9 6425689#0 6425689#0.48 -460419007#0 -460419007#0.17 -460419007#0.46 460419008#0 460419008#0.50 460419008#2 460419008#2.37 460419008#2.41 460419008#2.47 460419008#2.65 6516509#0 6516509#0.7 6516509#0.30 6516509#0.46 6516509#0.66 6516509#0.90 6516509#0.105 6516509#0.109 -6463536#1 -6463536#1.10 -6463536#1.11 -6463536#1.22 -6463536#1.32 -6463536#1.39 -6463536#1.43 -6463536#1.50 -6463536#1.60 -6463536#1.69 -6380913#7 -6380913#7.22 -6467507#7 -6467507#7.46 -6515975#6 -6507809#4 6447971#5 6447971#6 6447971#7 -263669069#0 -6481166#6 -6481166#5 -6481166#4 169917351#4 169917351#4.51 169917351#6 -6515975#3 -6515975#3.6 -6515975#3.44 -6515975#3.102 256996973#0 256996973#0.33 256996973#0.45 256996973#0.49 256996975#0 256996975#0.50 256996975#0.62 256996975#0.65 256996975#0.91 256996976#0 256996976#0.11 256996976#0.20 256996976#0.46 256996976#0.79 6487445#0 6487445#0.8 6415147#0 6415147#0.61 6449462#3 6449462#3.7 6449462#3.50 6449462#3.60 6449462#3.72 6449462#3.87 795669782#0 795669782#0.54 -6414318#0 -6414318#0.76 -6414318#0.81 460418987#0 460418987#0.4 460418987#0.8 460418987#1 460418987#2 460418987#3 460418987#3.91 22917667#0 22917667#0.7 22917667#0.103 22917670#7 22917670#7.7 22917670#7.71 795846818#5 795846818#5.5 795846818#5.174 481291011#0 481291011#0.6 481291011#0.65 481291010#0 481291010#0.19 481291010#0.23 481291010#0.30 481291010#0.133 481291010#3 481291010#3.6 481291010#3.100 369455641#1 369455641#1.28 369455641#1.78 512126022#0 512126022#0.11 512126022#0.46 185483738#4 185483738#4.14 185483738#6 185483738#6.71 185483738#6.123 -6496652#1 -6496652#1.86 -512126023#2 -512126023#2.37 -512126023#2.47 -512126023#0 -428247196#1 -428247196#1.16 428100741#0 428100741#0.10 -754699003#6 -754699003#6.36 -754699003#4 -754699003#4.5 -6367253#5 -6367253#4 -6367253#4.7 -6367253#4.119 -6367253#1 -6367253#1.137 -6467368#2 -6467368#0 -185483738#2 -185483738#2.93 -6371720#5 -6371720#5.41 157167355#0"/>
</vehicle>
<vehicle id = "veh12" type= "veh_passenger" depart="10815" >
<route edges =" -813722269#3 -813722269#3.7 -813722269#3.48 -813722269#3.84 -813722269#3.86 620762213#0 620762213#0.9 620762213#0.88 57883609#0 57883609#0.6 57883609#0.57 57883609#3 57883609#3.43 57883609#3.52 57883609#3.60 57883609#3.80 -8071898#3 -8071898#2 6430729#11 6430729#11.51 6430729#13 6430729#13.48 6440348#14 -292812445#4 -292812445#4.52 -292812445#2 -292812445#2.48 -292812445#2.63 -171739207#7 -171739207#7.16 -171739207#7.38 -171739207#7.41 -171739207#7.44 -171739207#7.46 -171739207#7.49 -171739207#7.51 -171739207#7.74 -171739207#7.76 -171739207#7.78 -171739207#7.82 -171739207#7.85 -171739207#7.89 6403874#0 -337668916#9 -337668916#9.50 160552467#1 160552467#1.43 160552467#1.66 160552467#1.99 160552467#1.104 160552467#1.111 -171739214#14 -6411908#1 -6411908#1.18 -6411908#1.26 -6411908#0 -813722270#7 -813722270#7.11 -813722270#7.122 -6430729#2 -6430729#2.11 -6430729#2.90 816616072#8 816616072#8.6 816616072#8.121 6346526#0 6346526#0.6 6346526#0.99 6346526#0.121 6346526#4 6346526#4.7 -171739214#11 -171739214#10 -171739214#9 -171739214#8 428098981 428098987#0 428098987#0.22 428098987#0.51 428098984#0 428098984#0.14 428098980#0 428098980#0.10 428098983 428098983.4 428314458 428314461 428098979#0 428098979#0.14 896104580#0 896104580#0.9 158882558 158882505#0 158882505#0.42 6368665#2 6368665#3 6368665#3.5 158882511#1 158882511#1.35 158882511#3 -6411908#4 158882517#3 158882517#4 158882517#5 6469837#3 158882511#9 158882511#9.51 -6457203#11 -6457203#11.20 -6457203#11.36 -6457203#11.44 -6457203#11.89 -6457203#11.100 8111708#0 8111708#0.2 8111708#0.5 8111708#0.7 8111708#0.9 8111708#0.12 8111708#0.14 8111708#0.45 8111708#0.50 6505136#14 6505136#15 6368504#5 6368504#5.48 -603522174#0 603522173#0 603522173#0.48 -6513783#9 -6513783#8 -6513783#7 -6513783#6 -6513783#5 -6384359#7 -6384359#7.49 -6464042#2 -6464042#2.80 6463017#2 6463017#2.44 6463017#2.48 6463017#5 -6381494#1 -6381494#0 292812445#9 292812445#9.49 6386837#0 6386837#1 6386837#2 6384359#12 6384359#12.14 6384359#12.24 6384359#12.93 -6444677 481291015#0 481291015#0.20 481291015#0.59 -343521145#3 -343521145#3.32 -343521145#3.66 -343521145#3.101 -343521145#3.142 -343521145#3.155 337739267#0 337739267#1 -481291488#10 -481291488#10.44 -481291488#10.61 -481291488#10.85 -481291488#10.132 -481291488#10.142 243349944#7 460419011#4 337739269#1 337739269#1.30 -801995081#6 -801995081#6.9 243349944#9 243349944#10 243349944#10.7 243349944#10.84 -6360256#7 -6360256#7.5 6447445#3 6447445#3.51 22917113#5 243349944#15 243349944#15.48 243349944#17 243349944#17.50 6494975#8 243349945#11 243349945#11.47 -243349942#0 -243349942#0.28 -22760521#3 -22760521#2 -22760521#2.81 -22760521#2.121 428246847#0 428246847#0.8 428246847#0.22 6386110#0 6386110#0.16 6386110#0.25 6386110#0.55 -243349338#6 -243349338#6.14"/>
</vehicle>
<vehicle id = "veh13" type= "veh_passenger" depart="10815" >
<route edges =" -816616074#1 -816616074#1.10 -816616074#1.14 -816616074#1.119 428341734#4 428341734#4.8 428246439#0 428246439#0.14 428246438#0 428246438#0.8 428246440#0 428246440#0.62 800744529#0 800744529#0.7 800744529#0.52 800744529#0.89 -349901821 349901822#0 349901822#0.9 96029553#0 96029553#0.9 96029553#0.15 96029553#0.59 8071900#0 8071900#0.7 8071900#0.18 8071900#0.88 -22917111#26 -22917111#26.7 -22917111#26.41 -22917111#26.121 32135548#5 32135548#5.7 32135548#5.49 32135548#5.88 32135548#9 32135548#9.7 32135548#9.47 32135548#9.63 32135548#9.78 525497323#0 525497323#0.50 525497323#2 525497323#2.81 40416132#0 40416132#0.19 40416132#1 40416132#1.90 256994206#0 256994206#0.8 256994206#0.43 256994206#0.60 460419028#0 460419028#0.11 460419028#0.49 460419028#0.79 460419028#0.95 243349338#0 243349338#0.18 243349338#1 243349338#2 243349338#3 243349338#3.49 243349338#5"/>
</vehicle>
<vehicle id = "veh14" type= "veh_passenger" depart="10815" >
<route edges =" 817434294 817434294.10 817434294.36 817434294.44 817434294.63 817434294.119 816616072#4 816616072#4.7 816616072#4.62 816616072#4.121 6430729#0 6430729#0.7 6430729#0.86 -813722270#4 -813722270#4.8 -813722270#4.54 -813722270#4.55 -813722270#4.87 -813722270#4.122 -816616073#1 -816616073#1.7 -569505974#1 -569505974#1.6 -569505974#1.33 -569505976#2 -569505976#2.9 -569505976#2.88 -569505976#2.115 -569505976#2.119 -569505978#1 -569505978#1.10 -569505979 -569505979.32 -569505979.79 -395714916#1 -395714916#1.12 -568043367 -568043367.41 -568043367.79 893866065#0 893866065#0.10 893866065#0.66 893866065#0.92 893866065#3 893866065#3.6 893866065#3.48 893866065#3.88 893866065#7 893866065#7.7 893866065#7.48 893866065#7.90 293775902#0 293775902#0.7 293775902#0.52 293775902#0.90 293775902#4 293775902#4.6 293775902#4.49 293775902#4.88 -6440371#8 -6440371#8.7 -6440371#8.122 -6440371#8.124 -6440371#8.125 -6440371#5 -6440371#5.4 -6440371#5.6 -6440371#5.7 -6440371#5.119 -6440371#5.121 -6440371#2 -6440371#2.9 -6440371#2.11 -6440371#2.121 -6440371#2.122 460419029#9 460419029#9.7 460419029#9.45 486874837#0 486874837#1 486874837#2 486874837#2.47 460419013#0 460419013#0.51 -6380913#14 -6425689#3 -6425689#3.44 -460419007#0 -460419007#0.17 -460419007#0.46 -6515975#8 -6515975#7 6467507#6 6467507#6.51 -6380913#5 -6380913#4 169917351#9 169917351#9.48 169917351#9.87 169917351#12 169917351#12.9 169917351#12.42 169917351#12.90 -6360239#3 -6360239#3.6 -6360239#3.69 -6360239#3.102 6487445#0 6487445#0.8 6415147#0 6415147#0.61 6415147#2 6497081#2 6497081#2.38 6497081#2.47 6497081#2.53 6497081#2.60 6497081#2.67 6497081#2.70 6497081#2.74 6497081#2.81 6497081#2.120 6497081#6 6497081#6.44 -6414318#2 -6414318#2.8 795669782#2 6371720#2 6371720#3 157167355#0"/>
</vehicle>
<vehicle id = "veh15" type= "veh_passenger" depart="10815" >
<route edges =" -814326475#2 -814326475#2.9 -814326475#2.24 -814326475#2.41 -814326475#2.70 -814326475#2.91 -6456052#5 -6456052#5.10 -6456052#5.36 -6456052#5.120 -6456052#1 -6456052#1.10 -6456052#1.62 -337673342#0 6343890#0 6343890#0.54 6343890#0.56 6343890#0.58 6343890#0.59 6343890#0.61 -6475815#6 -6475815#6.16 -6475815#4 -6475815#3 -6475815#3.2 -6475815#3.17 -6475815#3.46 -428089348#3 -428089348#3.15 -428089348#3.21 -428089348#3.28 -353690151#5 -353690151#5.11 -353690151#5.12 -353690151#5.26 -353690151#5.83 -353690151#5.102 -353690151#2 -353690151#2.9 -353690151#2.22 -353690151#2.24 -353690151#2.39 -353690151#2.72 -353690151#2.92 -433500388#1 -433500388#1.11 -433500388#1.46 -433500388#1.73 -433500388#1.113 -433500388#1.115 -428088900#1 -428088900#1.10 -428088894#1 -428088894#1.25 -428088883#1 -428088883#1.15 -428088897 -428088888 -737711647 -332223490#1 -332223490#1.19 -465971498#3 -465971498#3.2 -465971498#3.3 -465971498#3.5 -465971498#3.7 -465971498#3.10 -465971498#3.34 -465971498#3.84 369877037#0 369877037#0.9 369877037#0.83 537686684#0 537686684#0.43 537686684#0.53 -332223489#3 -332223489#3.4 -332223489#3.15 -332223489#3.17 -332223489#3.21 -401497115 -401497115.113 -401497115.170 -401497115.214 -428233435 -460425668 -460425668.5 -6457806#2 -6457806#2.21 -6457806#2.25 -6457806#2.30 6465162#0 6465162#0.2 6465162#0.6 6465162#0.11 6465162#0.36 428233434 428233434.31 428233434.58 -739874554#2 -739874554#2.15 -739874554#2.40 -739874554#2.60 -739874554#2.67 622519661 622519661.8 347092914#0 347092914#0.10 347092914#0.14 347092914#0.24 347092914#0.54 347092914#0.75 347092914#0.87 332223488 332223488.25 332223488.48 332223488.65 332223488.68 332223488.88 347092907#0 347092907#0.3 347092907#0.13 347092907#0.19 347092907#0.26 347092907#0.31 347092907#0.38 347092907#0.40 347092907#0.45 347092907#0.51 6405076#0 6405076#0.10 6405076#0.18 6405076#0.21 6405076#0.58 6405076#0.79 6405076#0.81 6405076#3 6405076#3.4 6405076#3.8 6405076#3.14 6405076#3.20 6405076#3.50 6405076#3.68 6405076#3.84 6405076#6 6405076#6.6 6405076#6.21 6405076#6.26 6405076#6.33 6405076#6.44 6405076#6.49 6405076#6.65 6405076#6.68 6405076#6.71 6405076#6.77 6405076#6.79 6405076#6.82 6405076#6.87 6476327#0 6476327#0.4 6476327#0.9 6476327#0.63 6476327#0.102 893868551#0 893868551#0.5 893868551#0.89 -32135545#3 -32135545#3.7 -32135545#3.47 -32135545#3.102 256996974#0 256996974#0.8 256996974#0.88 6506833#0 6506833#0.9 6506833#0.37 6506833#0.54 6506833#0.84 22917663#11 22917663#11.6 22917663#11.23 22917663#11.87 6465130#3 6465130#3.8 6465130#3.46 6465130#3.84 347092915#10 347092915#10.9 347092915#10.68 347092915#10.90 243338978#7 243338978#7.8 243338978#7.38 243338978#7.45 243338978#7.74 965874292#0 965874292#0.8 965874292#0.88 -22917664#2 -22917664#2.11 -22917664#2.76 881403607#0 881403607#0.25 881403607#0.42 881403608#3 881403608#3.2 881403608#3.5 881403608#3.8 881403608#3.11 976099002#0 976099002#0.34 976099002#0.40 976099002#0.64 965874292#7 965874292#7.8 965874292#7.41 965874292#10 965874292#10.35 965874292#12 965874292#12.8 965874292#12.69 158123767#0 158123767#0.10 158123767#0.11 158123767#0.50 158123767#0.74 158123767#0.86 158123767#0.115 158123767#0.122 158123767#0.134 158123767#0.139 158123767#0.166 795669782#0 795669782#0.54 6414318#1 6414318#1.86 6414318#3 -157167355#0"/>
</vehicle>
<vehicle id = "veh16" type= "veh_passenger" depart="14420" >
<route edges =" -813722269#3 -813722269#3.7 -813722269#3.48 -813722269#3.84 -813722269#3.86 620762213#0 620762213#0.9 620762213#0.88 620762212#0 620762212#0.8 620762212#0.52 6343949#6 -65588100#1 -65588100#1.65 -826314455#3 -826314455#3.64 -826314455#3.71 -826314455#3.76 -826314455#3.90 -826314455#3.118 825336588#0 825336588#0.7 96029553#0 96029553#0.9 96029553#0.15 96029553#0.59 8071900#0 8071900#0.7 8071900#0.18 8071900#0.88 8071900#4 8071900#4.7 8071900#4.49 8071900#4.88 8071900#8 8071900#8.6 8071900#8.7 8071900#8.49 8071900#8.53 525497324#1 243349944#4 243349944#4.53 243349944#6 243349944#7 243349944#8 801995081#6 801995081#6.192 481291013#0 481291013#0.16 481291013#0.30 481291013#0.70 481291013#0.75 481291013#0.79 481291013#0.109 481291013#0.113 737709039#0 737709039#0.8 737709039#0.14 737709039#2 737709039#2.53 737709039#2.59 537678339#0 537678339#0.28 92170540#0 92170540#0.10 243334881#0 243334881#0.7 243334881#0.57 243334881#0.96 805680044#1 805680044#1.7 805680044#1.49 805680044#1.91 -22917113#10 -22917113#10.7 -22917113#10.129 -22917113#10.132 -361784407#3 -361784407#3.43 -361784407#3.58 -361784407#3.88 -6360256#13 -6360256#13.8 -6360256#13.10 -6360256#13.19 -6360256#13.61 -6360256#13.76 -6360256#13.125 243349945#3 243349945#3.5 243349945#3.45 243349945#3.49 243349945#6 243349945#6.48 243349945#6.88 243349945#9 243349945#9.50 6494975#9 6494975#9.108 6494975#9.119 805658294#2 805658294#2.39 805658294#4 805658294#4.48 6472289#4 336908262#2 336908262#2.49 -160624558#4 -160624558#4.98 -160624558#2 243349945#17 359671039#7 359671039#7.74 805658294#9 805658294#9.71 808266757#0 808266757#0.7 -352434874#3 243349945#20 243349945#21 243349945#22 243349945#22.40 -6409640#12 -6409640#11 -6447445#23 -6447445#23.8 -6447445#23.42 -6447445#20 -6447445#20.21 -6447445#20.41 -6447445#17 352434874#1 -243349944#27 -532125609#1 -532125609#0 -438895608#1 -438895608#0 -438895608#0.27 438895607 438895607.119 -6447445#13 -6447445#13.40 -6447445#11 -6447445#10 -6447445#10.48 -6494975#6 -6494975#6.81 256994205#3 428246847#0 428246847#0.8 428246847#0.22 6386110#0 6386110#0.16 6386110#0.25 6386110#0.55 -243349338#6 -243349338#6.14"/>
</vehicle>
<vehicle id = "veh17" type= "veh_passenger" depart="14420" >
<route edges =" -816616074#1 -816616074#1.10 -816616074#1.14 -816616074#1.119 428341734#4 428341734#4.8 428246439#0 428246439#0.14 428246438#0 428246438#0.8 428246440#0 428246440#0.62 -800744528#1 -800744528#1.8 -800744528#1.16 -800744528#1.37 -800744528#1.72 826314456#0 826314456#0.9 826314456#0.50 826314456#0.96 826314456#0.103 -6476313#2 -6476313#2.11 -6476313#2.29 -6476313#2.98 -6476313#2.99 -6476313#2.103 -6476313#2.107 164418944#4 164418944#4.7 164418944#4.8 164418944#4.29 164418944#4.51 164418944#4.95 -353690150#2 -353690150#2.8 -353690150#2.144 293775902#0 293775902#0.7 293775902#0.52 293775902#0.90 293775902#4 293775902#4.6 293775902#4.49 293775902#4.88 293775902#8 293775902#8.6 293775902#8.49 293775902#8.91 293775902#12 293775902#12.3 293775902#12.50 -6481166#11 -6481166#11.122 -6481166#11.125 6464138#14 -481291488#1 6464126#0 6464126#0.46 6464126#0.49 6464126#3 6464126#3.49 6464126#5 6464126#6 6464126#7 6464126#7.50 6464126#9 6464126#9.46 6464126#11 6464126#11.50 6494975#2 243349338#5"/>
</vehicle>
<vehicle id = "veh18" type= "veh_passenger" depart="14420" >
<route edges =" 817434294 817434294.10 817434294.36 817434294.44 817434294.63 817434294.119 6343949#0 6343949#0.7 6343949#0.86 -816616073#1 -816616073#1.7 -569505974#1 -569505974#1.6 -569505974#1.33 -569505976#2 -569505976#2.9 -569505976#2.88 -569505976#2.115 -569505976#2.119 -569505978#1 -569505978#1.10 -569505979 -569505979.32 -569505979.79 337673338#0 337673338#0.14 185882764 185882764.13 185882764.14 185882765 185882765.16 185882765.26 185882765.30 185882765.31 -243338979#28 -243338979#28.13 -243338979#28.49 -243338979#28.142 -243338979#28.143 -243338979#25 -243338979#25.8 -243338979#25.64 -243338979#25.77 -243338979#25.120 893866060#4 893866060#4.6 893866060#4.48 893866060#4.89 -353690148#3 -353690148#3.7 -353690148#3.59 -353690148#3.121 893866056#0 893866056#0.8 893866056#0.64 893866056#0.88 353690154#0 353690154#0.7 353690154#0.49 353690154#0.90 22917111#14 22917111#14.7 22917111#14.9 22917111#14.122 22917111#14.123 22917111#14.125 6464138#4 6464138#4.6 6464138#4.51 6464138#4.88 6464138#8 6464138#8.7 6464138#8.49 6464138#8.88 6464138#12 6464138#12.51 -6481166#10 -6481166#10.6 -6481166#10.8 -6481166#10.120 -353690154#14 -353690154#14.66 -353690154#14.91 -6512920#3 -6512920#3.8 -6512920#3.9 -6512920#3.19 -6512920#3.59 -6512920#3.92 486874837#0 -6481166#8 -6481166#8.162 263669069#0 6447971#8 6425689#0 6425689#0.48 6425689#2 6425689#2.48 -6380913#13 -6380913#12 460419008#2 460419008#2.37 460419008#2.41 460419008#2.47 460419008#2.65 6516509#0 6516509#0.7 6516509#0.30 6516509#0.46 6516509#0.66 6516509#0.90 6516509#0.105 6516509#0.109 6516509#4 6516509#4.6 6516509#4.33 6516509#4.47 6516509#4.52 6516509#4.66 6516509#4.84 6516509#8 6516509#8.7 6516509#8.85 6507809#10 6507809#10.8 6507809#10.91 6507809#13 6507809#13.9 6507809#13.77 6452520#6 6452520#6.7 185485127#0 185485127#1 185485127#2 185485127#2.70 336908264#2 336908264#2.29 -169917351#27 -169917351#27.11 -169917351#27.76 -169917351#24 -169917351#24.6 -169917351#24.71 -6523501#2 -6523501#2.5 -6523501#2.101 6497081#0 6497081#0.8 6415147#3 6415147#4 -428247193#2 -428247193#2.56 -428247193#2.61 -428247193#2.96 -428247193#2.117 -428247193#2.121 -428247193#2.140 -428247193#2.154 -428247195 -428247195.5 -428247194#1 -428247194#1.9 -428247194#1.28 -157167355#3 -157167355#3.5 -157167355#3.43 -6414318#3 6497081#8 6497081#9 6497081#9.126 369455641#1 369455641#1.28 369455641#1.78 512126021#0 512126021#0.7 512126021#0.31 512126021#0.66 157167355#0"/>
</vehicle>
<vehicle id = "veh19" type= "veh_passenger" depart="14420" >
<route edges =" -814326475#2 -814326475#2.9 -814326475#2.24 -814326475#2.41 -814326475#2.70 -814326475#2.91 -6456052#5 -6456052#5.10 -6456052#5.36 -6456052#5.120 -607690679#4 -607690679#4.9 -607690679#4.87 -607690679#4.94 -607690679#4.99 -6447455#5 -6447455#5.3 -6447455#5.8 -6447455#5.47 -6447455#1 -6447455#1.85 -6447455#1.90 -723052304#2 -723052304#2.8 -723052304#0 -6511393#1 -6511393#1.119 -6511397#14 -6511397#14.3 -6511397#14.5 -6511397#14.7 -6511397#14.9 -6511397#14.18 -6511397#14.65 -6462029#13 -6462029#13.9 -6462029#13.48 -6462029#13.90 -749622503#25 -749622503#25.7 -749622503#25.85 -759056694#10 -759056694#10.10 -759056694#10.50 -759056694#10.73 -759056694#10.89 -759056694#6 -759056694#6.7 -759056694#6.25 -759056694#6.49 -759056694#6.89 -759056694#2 -759056694#2.7 -759056694#2.25 -759056694#2.48 162631002#0 162631002#0.17 162631002#0.23 162631002#0.27 162631002#0.28 162631002#0.29 162631002#0.30 162631002#0.32 162631002#0.33 738637223#0 738637223#0.15 -165042063#1 -165042063#1.3 -165042063#1.13 -165042063#1.15 -759056491 -759056491.4 -759056491.8 -759056491.13 -759056491.17 -759056491.21 -759056491.26 -759056491.41 -759056491.81 -759056491.83 -759056491.88 -337673342#5 -337673342#5.3 -337673342#5.9 -337673342#5.13 -337673342#5.21 -337673342#5.35 -337673342#5.72 -607691082#1 -607691082#0 -6475815#3 -6475815#3.2 -6475815#3.17 -6475815#3.46 -428089348#3 -428089348#3.15 -428089348#3.21 -428089348#3.28 332223491#0 332223491#0.12 6438604#0 6438604#0.3 6438604#0.6 6438604#0.8 6438604#0.10 6438604#0.11 6438604#0.13 6438604#0.44 6438604#0.60 -22927969#14 -22927969#14.8 -22927969#14.47 -22927969#14.89 -22927969#10 -22927969#10.10 -22927969#10.51 -22927969#10.91 -22927969#6 -22927969#6.8 -22927969#6.48 -22927969#6.90 -749622503#18 -749622503#18.7 -749622503#18.55 -749622503#18.81 -428227803#1 -428227803#1.9 -428227860 -428227860.14 -428227828 -428227842 -428227822#1 -428227822#1.17 428230992#0 428230992#0.8 428230996 369877034#0 369877034#0.17 369877031#0 369877031#0.10 369877031#0.31 369877031#0.46 369877031#0.88 -749622503#8 -749622503#8.7 -749622503#8.63 -749622503#8.83 -749622503#4 -749622503#4.84 369877024#3 369877024#3.6 369877024#3.87 369877024#3.91 369877024#3.98 369877024#3.100 369877024#3.103 369877024#3.104 -428088900#1 -428088900#1.10 -428088894#1 -428088894#1.25 -532166310#2 -532166310#2.3 -532166310#2.13 -369877039 -369877039.36 -369877039.55 -428088903#1 -428088903#1.15 428231560#0 428231560#0.10 338073582#0 338073582#0.20 -6502980#13 -6502980#13.10 -6502980#13.20 -6502980#13.36 -6502980#13.49 -6502980#13.55 -6502980#13.82 -6502980#7 -6502980#7.6 -6502980#7.48 -6502980#7.86 -6502980#3 -6502980#3.7 -6502980#3.69 -6502980#3.84 347094711#0 347094711#0.7 347094711#0.20 347094711#0.38 347094711#0.50 347094711#0.69 347094711#0.73 347094711#0.74 347094712#0 347094712#0.21 -332223489#3 -332223489#3.4 -332223489#3.15 -332223489#3.17 -332223489#3.21 -401497115 -401497115.113 -401497115.170 -401497115.214 -428233435 -460425668 -460425668.5 -6457806#2 -6457806#2.21 -6457806#2.25 -6457806#2.30 6476922#0 6476922#0.13 6476922#0.24 6476922#0.37 6476922#0.60 6476922#0.67 6413383#0 6413383#0.1 6413383#0.3 6413383#0.6 6413383#0.18 6413383#0.26 6413383#0.47 428233432#0 428233432#0.11 428233432#0.22 332223487#0 332223487#0.16 332223487#0.62 332223487#0.98 332223488 332223488.25 332223488.48 332223488.65 332223488.68 332223488.88 347092907#0 347092907#0.3 347092907#0.13 347092907#0.19 347092907#0.26 347092907#0.31 347092907#0.38 347092907#0.40 347092907#0.45 347092907#0.51 332223494#0 332223494#0.18 332223494#0.35 332223494#0.144 332223494#0.171 6506833#15 6506833#15.8 6506833#15.10 6506833#15.35 49394452#5 49394452#5.6 49394452#5.186 -965874293#1 -965874293#1.6 -965874293#1.37 -243338978#10 -243338978#10.11 -243338978#10.41 -243338978#10.48 -243338978#10.78 -243338978#6 -243338978#6.8 -243338978#6.83 -243338978#3 -243338978#3.21 -243338978#3.34 -243338978#3.83 -256996974#10 -256996974#10.11 -256996974#10.59 -256996974#10.79 -256996974#10.90 6440364#0 6440364#0.8 6440364#0.26 6440364#0.98 6440364#0.103 901477545#7 901477545#7.5 901477545#7.83 901477546#0 901477546#0.5 901477546#0.47 901477546#0.85 901474742#0 901474742#0.6 901474742#0.45 901474742#0.83 6467507#0 6467507#0.7 6467507#0.88 -6481166#5 -6481166#4 -6481166#3 -6481166#3.7 -6481166#3.37 -6481166#3.105 256996972 256996972.16 256996972.70 881403606#0 881403606#0.12 881403606#0.42 881403606#0.83 881403606#0.85 881403606#4 881403606#4.53 881403608#2 881403608#2.2 881403608#2.5 881403608#2.8 881403608#2.11 881403608#3 881403608#3.2 881403608#3.5 881403608#3.8 881403608#3.11 976099002#0 976099002#0.34 976099002#0.40 976099002#0.64 965874292#7 965874292#7.8 965874292#7.41 965874292#10 965874292#10.35 965874292#12 965874292#12.8 965874292#12.69 158123767#0 158123767#0.10 158123767#0.11 158123767#0.50 158123767#0.74 158123767#0.86 158123767#0.115 158123767#0.122 158123767#0.134 158123767#0.139 158123767#0.166 795669781 795669781.52 795669781.56 460421481#1 460421481#1.61 460421481#1.85 256997441#0 256997441#0.11 256997441#0.18 256997441#0.62 14374224#4 14374224#4.44 14374224#4.54 14374224#4.84 14374224#4.122 -6414318#4 -157167355#0"/>
</vehicle>
<vehicle id = "veh20" type= "veh_passenger" depart="18025" >
<route edges =" -813722269#3 -813722269#3.7 -813722269#3.48 -813722269#3.84 -813722269#3.86 569505974#0 569505974#0.10 569505974#0.37 816616073#0 816616073#0.78 813722270#0 813722270#0.7 813722270#0.42 813722270#0.74 813722270#0.75 813722270#0.121 6430729#3 6430729#3.9 6430729#3.48 620762212#4 620762212#4.122 171739207#2 171739207#2.46 -65588100#6 -65588100#6.7 -65588100#4 -65588100#4.73 -65588100#4.110 6343949#7 6343949#8 6343949#8.52 65588093#2 6430729#13 6430729#13.48 -6440348#13 -6440348#13.56 -6440348#13.66 -6440348#13.122 -6440348#13.124 -6440348#10 -6440348#10.4 -6440348#10.6 -6440348#10.48 -6440348#10.83 -6440348#7 -6440348#7.9 243349944#0 243349944#0.4 243349944#0.20 243349944#0.49 525497324#2 525497324#3 525497324#4 525497324#4.15 525497324#4.73 525497324#4.88 6430729#17 6430729#17.51 -620762224#0 343521145#0 343521145#0.47 343521145#0.69 337739267#0 337818462 337818462.3 337818462.6 337739271#1 337739271#1.6 337739269#0 -460419011#4 243349944#8 243349944#9 396055523#9 396055523#9.6 396055523#9.20 396055523#9.54 6447445#0 6447445#0.8 6447445#0.87 6447445#3 6447445#3.51 -22917113#4 256994205#1 256994205#2 256994205#2.24 256994205#2.72 256994205#3 428246847#0 428246847#0.8 428246847#0.22 6386110#0 6386110#0.16 6386110#0.25 6386110#0.55 -243349338#6 -243349338#6.14"/>
</vehicle>
<vehicle id = "veh21" type= "veh_passenger" depart="18025" >
<route edges =" -816616074#1 -816616074#1.10 -816616074#1.14 -816616074#1.119 428341734#4 428341734#4.8 428246439#0 428246439#0.14 428246438#0 428246438#0.8 428246440#0 428246440#0.62 800744529#0 800744529#0.7 800744529#0.52 800744529#0.89 -349901821 -6476313#2 -6476313#2.11 -6476313#2.29 -6476313#2.98 -6476313#2.99 -6476313#2.103 -6476313#2.107 164418944#4 164418944#4.7 164418944#4.8 164418944#4.29 164418944#4.51 164418944#4.95 32135548#0 32135548#0.6 32135548#0.48 32135548#0.53 32135548#0.64 32135548#0.89 32135548#0.90 32135548#5 32135548#5.7 32135548#5.49 32135548#5.88 -6440371#11 -6440371#11.12 -6440371#11.144 293775902#8 293775902#8.6 293775902#8.49 293775902#8.91 6512920#8 6512920#8.4 6512920#8.74 6512920#8.89 6512920#8.101 6512920#8.139 525497324#0 525497324#1 243349944#4 243349944#4.53 243349944#6 -481291488#4 -481291488#4.47 40416132#0 40416132#0.19 40416132#1 40416132#1.90 -801995081#2 -801995081#2.109 6464126#5 460419028#4 460419028#5 460419028#5.67 460419028#5.79 460419028#5.105 353690153#0 353690153#0.8 353690153#0.25 353690153#0.87 6360256#0 6360256#0.104 243339793#6 243339793#6.50 243339793#6.74 243339793#9 243339793#9.48 185485132#3 185485132#3.10 185485132#4 243349338#3 243349338#3.49 243349338#5"/>
</vehicle>
<vehicle id = "veh22" type= "veh_passenger" depart="18025" >
<route edges =" 817434294 817434294.10 817434294.36 817434294.44 817434294.63 817434294.119 6343949#0 6343949#0.7 6343949#0.86 -816616073#1 -816616073#1.7 -569505974#1 -569505974#1.6 -569505974#1.33 -569505976#2 -569505976#2.9 -569505976#2.88 -569505976#2.115 -569505976#2.119 -569505978#1 -569505978#1.10 -569505979 -569505979.32 -569505979.79 337673338#0 337673338#0.14 185882764 185882764.13 185882764.14 185882765 185882765.16 185882765.26 185882765.30 185882765.31 395933841 164418944#0 164418944#0.13 164418944#0.18 164418944#0.32 164418944#0.39 -353690148#9 -353690148#9.7 -353690148#9.10 -353690148#9.12 -353690148#9.13 -353690148#9.38 -353690148#9.143 893866065#7 893866065#7.7 893866065#7.48 893866065#7.90 -893866064#2 -893866064#2.7 -893866064#2.122 -893866059#2 -893866059#2.7 -893866059#2.120 -893866059#2.121 -893866057 -893866057.8 -893866057.9 -893866057.122 -353690149#3 -353690149#3.9 -353690149#3.73 -353690149#3.196 353690160#0 353690160#0.6 353690160#0.88 -22917111#2 -22917111#2.10 -22917111#2.197 -876005346#2 -876005346#2.9 -876005346#2.90 -893868548#2 -893868548#2.7 -893868548#2.85 -893868550#2 -893868550#2.7 -893868550#2.86 901477545#0 901477545#0.8 901477545#0.89 901477545#4 901477545#4.7 901477545#4.69 6440364#4 6440364#4.6 6440364#4.86 6440364#7 6440364#7.7 6440364#7.83 901474741#0 901474741#0.6 901474741#0.85 901474741#0.87 512168130#0 512168130#0.7 512168130#0.140 512168130#0.193 512168130#0.195 901419468#0 901419468#0.8 901419468#0.10 901419468#0.19 901419468#0.42 901419468#0.73 901419468#0.154 -512168131 -512168131.51 -512168131.89 -460419029#8 -460419029#8.7 -460419029#8.46 -460419029#8.90 22917111#11 22917111#11.7 22917111#11.31 22917111#11.49 22917111#11.50 22917111#11.120 22917111#11.121 353690154#4 353690154#4.6 353690154#4.49 353690154#4.54 353690154#4.87 353690154#8 353690154#8.7 353690154#8.42 353690154#8.50 353690154#8.92 6512920#4 6512920#4.4 6512920#4.9 6512920#4.120 6512920#4.122 6464138#12 6464138#12.51 6464138#14 -481291488#1 -481291488#0 -481291488#0.69 -481291488#0.82 243339793#0 243339793#0.48 243339793#2 243339793#2.49 -801995082 -6380913#14 -6380913#13 -6380913#12 -6380913#11 -6380913#11.53 -6380913#7 -6380913#7.22 -6467507#7 -6467507#7.46 -6515975#6 -6515975#5 -6515975#5.48 -169917351#6 -6447971#3 -6447971#3.29 -6447971#3.37 -6447971#3.61 256996978#0 256996978#0.7 256996978#0.68 256996973#0 256996973#0.33 256996973#0.45 256996973#0.49 6385341#0 6385341#0.19 6385341#0.20 6385341#0.34 6385341#0.47 6385341#0.50 6385341#0.54 6385341#0.58 6385341#0.73 6385341#0.78 6385341#0.81 6385341#0.84 6385341#0.87 6385341#0.126 6385341#0.138 6384260#2 -6461236#2 -6461236#2.90 -6461236#2.92 -6461236#2.106 -6461236#2.126 -6461236#2.141 256996976#0 256996976#0.11 256996976#0.20 256996976#0.46 256996976#0.79 256996976#3 256996976#3.7 256996976#3.76 6449462#0 6449462#0.9 6449462#0.46 6415147#2 6497081#2 6497081#2.38 6497081#2.47 6497081#2.53 6497081#2.60 6497081#2.67 6497081#2.70 6497081#2.74 6497081#2.81 6497081#2.120 6497081#6 6497081#6.44 6497081#8 6371720#3 157167355#0"/>
</vehicle>
<vehicle id = "veh23" type= "veh_passenger" depart="18025" >
<route edges =" -814326475#2 -814326475#2.9 -814326475#2.24 -814326475#2.41 -814326475#2.70 -814326475#2.91 -6456052#5 -6456052#5.10 -6456052#5.36 -6456052#5.120 -6456052#1 -6456052#1.10 -6456052#1.62 -607691082#1 -607691082#0 -6475815#3 -6475815#3.2 -6475815#3.17 -6475815#3.46 -428089348#3 -428089348#3.15 -428089348#3.21 -428089348#3.28 -353690151#5 -353690151#5.11 -353690151#5.12 -353690151#5.26 -353690151#5.83 -353690151#5.102 -293753571#3 -293753571#3.3 -293753571#3.7 -293753571#3.21 -369877031#7 -369877031#7.10 -369877031#7.98 -369877031#7.191 -749622503#8 -749622503#8.7 -749622503#8.63 -749622503#8.83 -749622503#4 -749622503#4.84 -749622503#2 -749622503#2.9 -749622503#2.29 -749622503#2.64 -749622503#2.84 -6522514#4 -6522514#4.7 -6522514#4.36 -6522514#4.61 -6522514#4.66 -6522514#4.67 -6522514#4.73 -332223490#1 -332223490#1.19 6514305#0 6514305#0.3 6514305#0.4 6514305#0.9 6514305#0.14 6514305#0.34 6514305#0.54 353690159#1 353690159#1.50 353690159#1.92 353690159#4 353690159#4.6 353690159#4.49 353690159#4.69 353690159#4.76 353690159#4.85 353690159#9 353690159#9.9 353690159#9.28 353690159#9.40 353690159#9.53 353690159#9.88 486844942#0 486844942#0.5 486844942#0.15 486844942#0.87 -6476327#15 -6476327#15.10 -6476327#15.38 -6476327#15.65 -6476327#11 -6476327#10 -6476327#10.8 -6476327#10.86 -893868549#11 -893868549#11.9 -893868549#11.68 -893868549#11.84 -893868549#11.99 -893868549#11.180 -893868549#11.184 -6435230#4 -6435230#4.33 -617435760#4 -617435760#4.12 -617435760#4.51 -617435760#4.53 6343878#0 6343878#0.6 6343878#0.85 6343878#0.89 -893868549#2 -893868549#2.10 -893868549#2.49 -893868549#2.89 -893868549#2.91 -893868549#2.93 -893868549#2.94 6456044#0 6456044#0.1 6456044#0.2 6456044#0.3 6456044#0.4 6456044#0.6 6456044#0.84 6467490#0 6467490#0.7 6467490#0.49 6467490#0.78 -401497115 -401497115.113 -401497115.170 -401497115.214 -537677478#2 -537677478#2.10 -537677478#2.11 -537677478#2.28 -537677478#2.36 -6456046#3 -6456046#3.6 -6456046#3.36 -6456046#3.42 -6456046#3.49 -6456046#3.56 -6456046#3.62 -6456046#3.66 -6456046#3.71 -6456046#3.76 -6456046#3.92 -6456046#3.102 -6456046#3.109 -6456046#3.112 6402586#0 6402586#0.1 6402586#0.4 6402586#0.6 6402586#0.12 6402586#0.35 6402586#0.59 6415152 6415152.4 6415152.15 6415152.33 6415152.51 6415152.63 6415152.76 6415152.94 6415152.108 6415152.133 6415152.155 858621141#0 858621141#0.35 858621141#0.40 622519661 622519661.8 347092914#0 347092914#0.10 347092914#0.14 347092914#0.24 347092914#0.54 347092914#0.75 347092914#0.87 893872038 893872038.9 893872038.14 893872038.97 893872038.123 893872038.129 893872038.134 347092915#0 347092915#0.8 347092915#0.32 347092915#0.44 347092915#0.89 347092915#0.182 347092915#6 347092915#6.6 347092915#6.44 347092915#6.87 6465130#7 6465130#7.8 6465130#7.44 6465130#7.70 6465130#7.74 22760519#3 22760519#3.9 22760519#3.21 22760519#3.33 22760519#3.91 965874292#0 965874292#0.8 965874292#0.88 965874292#3 965874292#3.1 965874292#3.48 965874292#3.59 965874292#3.86 965874292#7 965874292#7.8 965874292#7.41 965874292#10 965874292#10.35 965874292#12 965874292#12.8 965874292#12.69 158123767#0 158123767#0.10 158123767#0.11 158123767#0.50 158123767#0.74 158123767#0.86 158123767#0.115 158123767#0.122 158123767#0.134 158123767#0.139 158123767#0.166 795669781 795669781.52 795669781.56 460421481#1 460421481#1.61 460421481#1.85 256997441#0 256997441#0.11 256997441#0.18 256997441#0.62 256997441#3 256997441#3.6 256997441#3.53 256997441#6 256997441#6.46 6354836#4 6354836#5 6354836#5.54 6354836#7 6354836#7.92 -6467368#3 -6467368#2 -661086629#2 -661086629#2.7 -661086629#0 -185483733 -6414318#4 -157167355#0"/>
</vehicle>
<vehicle id = "veh24" type= "veh_passenger" depart="21630" >
<route edges =" -813722269#3 -813722269#3.7 -813722269#3.48 -813722269#3.84 -813722269#3.86 620762213#0 620762213#0.9 620762213#0.88 57883609#0 57883609#0.6 57883609#0.57 65588100#0 65588100#0.63 6343949#7 -8071898#2 6430729#11 6430729#11.51 -65588093#2 6343949#10 6343949#10.49 6343949#12 6343949#12.47 -525497324#3 620762218#5 620762218#5.18 620762218#5.80 343521145#0 343521145#0.47 343521145#0.69 337739267#0 337739267#1 337739271#0 337739271#0.10 337739271#0.13 337739271#1 337739271#1.6 337739269#0 337739269#1 337739269#1.30 337739269#3 337739269#3.69 396055523#5 396055523#5.8 396055523#5.42 396055523#7 396055523#7.122 396055523#9 396055523#9.6 396055523#9.20 396055523#9.54 6447445#0 6447445#0.8 6447445#0.87 6360256#6 6360256#6.122 243349944#13 243349944#13.47 243349944#13.51 243349944#15 243349944#15.48 -185485132#9 -185485132#8 -185485132#8.81 256994205#2 256994205#2.24 256994205#2.72 256994205#3 428246847#0 428246847#0.8 428246847#0.22 6386110#0 6386110#0.16 6386110#0.25 6386110#0.55 -243349338#6 -243349338#6.14"/>
</vehicle>
<vehicle id = "veh25" type= "veh_passenger" depart="21630" >
<route edges =" -816616074#1 -816616074#1.10 -816616074#1.14 -816616074#1.119 428341734#4 428341734#4.8 428246439#0 428246439#0.14 428246438#0 428246438#0.8 428246440#0 428246440#0.62 800744529#0 800744529#0.7 800744529#0.52 800744529#0.89 825336588#0 825336588#0.7 349901822#2 349901822#2.21 -620762214 179551719 179551719.37 179551719.46 179551719.51 179551719.88 179551719.93 179551719.97 739843348#0 739843348#0.4 739843348#0.9 -460423532#1 -460423532#1.17 -22917111#30 -22917111#30.9 -22917111#30.50 -22917111#30.96 -22917111#26 -22917111#26.7 -22917111#26.41 -22917111#26.121 -22917111#22 -22917111#22.9 -22917111#22.144 -22917111#19 -22917111#19.8 -22917111#19.123 -22917111#19.125 -22917111#19.126 6464138#4 6464138#4.6 6464138#4.51 6464138#4.88 6440371#6 6440371#6.4 6440371#6.6 6440371#6.7 6440371#6.122 6440371#9 6440371#9.7 6440371#9.139 32135548#9 32135548#9.7 32135548#9.47 32135548#9.63 32135548#9.78 525497323#0 525497323#0.50 525497323#2 525497323#2.81 40416132#0 40416132#0.19 40416132#1 40416132#1.90 256994206#0 256994206#0.8 256994206#0.43 256994206#0.60 460419028#0 460419028#0.11 460419028#0.49 460419028#0.79 460419028#0.95 460419028#3 6464126#6 6360256#2 6360256#2.128 243349338#1 -22917113#2 -22917113#1 -22917113#1.55 243339793#9 243339793#9.48 243339793#11 243339793#11.47 243339793#13 243339793#13.49 243339793#15 243339793#15.46 795671506#0 795671506#0.46 -6501822#8 -6501822#8.7 -6501822#7 8071924#5 -6396312#4 -6396312#4.43 -185485117#2 -6501822#4 6463541#0 6463541#1 6463541#2 6463541#2.38 6463541#2.41 6506505#2 6506505#3 6506505#4 6506505#5 -6464130#4 -6464130#3 -6464130#3.41 -359671039#1 -6336174#1 -6336174#1.42 6501822#10 -6464126#18 -6464126#18.45 -6464126#16 -6464126#16.47 -6464126#14 -6464126#14.50 6494975#2 243349338#5"/>
</vehicle>
<vehicle id = "veh26" type= "veh_passenger" depart="21630" >
<route edges =" 817434294 817434294.10 817434294.36 817434294.44 817434294.63 817434294.119 6343949#0 6343949#0.7 6343949#0.86 6343949#3 6343949#3.9 6343949#3.49 -620762212#2 -620762212#2.76 -620762212#2.120 -800744530#5 -800744530#5.9 -800744530#5.19 -800744530#5.73 -800744530#5.84 -800744530#5.118 -800744528#1 -800744528#1.8 -800744528#1.16 -800744528#1.37 -800744528#1.72 -337673339 -337673337 -337673338#1 -337673338#1.9 -395714916#1 -395714916#1.12 -568043367 -568043367.41 -568043367.79 -293775903#2 -293775903#2.10 -293775903#2.37 -293775903#2.89 -293775903#2.118 -475161306#1 -475161306#1.9 -475161306#1.92 -475161306#1.120 353690155#0 353690155#0.10 353690155#0.51 353690155#0.58 353690155#0.90 -243338979#17 -243338979#17.7 -243338979#17.60 -243338979#17.109 -243338979#17.118 -243338979#17.120 486864438#2 486864438#2.6 486864438#2.88 353690152#0 353690152#0.9 353690152#0.90 460419029#0 460419029#0.7 460419029#0.51 460419029#0.53 460419029#0.89 22917111#11 22917111#11.7 22917111#11.31 22917111#11.49 22917111#11.50 22917111#11.120 22917111#11.121 353690154#4 353690154#4.6 353690154#4.49 353690154#4.54 353690154#4.87 353690154#8 353690154#8.7 353690154#8.42 353690154#8.50 353690154#8.92 6512920#4 6512920#4.4 6512920#4.9 6512920#4.120 6512920#4.122 6464138#12 6464138#12.51 6464138#14 -481291488#1 6464126#0 6464126#0.46 6464126#0.49 -460419011#1 -460419011#1.97 243339793#2 243339793#2.49 -801995082 -460419013#1 -460419013#1.44 -486874837#3 -486874837#3.48 -6447971#9 -6447971#8 -6447971#7 6463532#0 6463532#0.49 -6515975#7 -6467507#5 -6467507#5.50 -6467507#3 -6481166#5 6507809#3 6507809#4 6507809#5 6507809#5.51 6380913#5 6467507#8 6467507#8.87 6516509#8 6516509#8.7 6516509#8.85 6516509#11 6516509#11.6 6516509#11.34 6516509#11.86 169917351#12 169917351#12.9 169917351#12.42 169917351#12.90 169917351#16 169917351#16.9 169917351#16.77 169917351#19 169917351#19.6 169917351#19.71 -6523501#2 -6523501#2.5 -6523501#2.101 6497081#0 6497081#0.8 -6415147#2 6449462#3 6449462#3.7 6449462#3.50 6449462#3.60 6449462#3.72 6449462#3.87 795669782#0 795669782#0.54 6414318#1 6414318#1.86 6497081#8 -6371720#2 -6371720#1 -6371720#1.81 460418987#2 460418987#3 460418987#3.91 460418978#0 460418978#0.8 460418978#0.76 460418978#3 460418978#3.9 460418978#3.49 369455641#1 369455641#1.28 369455641#1.78 512126021#0 512126021#0.7 512126021#0.31 512126021#0.66 157167355#0"/>
</vehicle>
<vehicle id = "veh27" type= "veh_passenger" depart="21630" >
<route edges =" -814326475#2 -814326475#2.9 -814326475#2.24 -814326475#2.41 -814326475#2.70 -814326475#2.91 -723013181#2 -723013181#2.9 -723013181#2.18 -723013181#2.38 -723013181#0 -332601014#3 -332601014#3.31 -332601014#3.36 -332601014#3.42 -428246436#1 -428246436#1.13 -428246436#1.22 -428246436#1.37 -808907363#3 -808907363#3.25 -808907363#3.35 -808907363#3.48 -808907363#3.53 -808907363#3.61 607690679#0 607690679#0.3 607690679#0.8 607690679#0.15 607690679#0.94 -6456052#1 -6456052#1.10 -6456052#1.62 -607691082#1 -607691082#0 -6475815#3 -6475815#3.2 -6475815#3.17 -6475815#3.46 -428089348#3 -428089348#3.15 -428089348#3.21 -428089348#3.28 -428341218#2 -428341218#2.3 -428341218#2.9 -65588069#1 -65588069#1.13 -428089351#1 -428089351#1.16 -428089352#1 -428089352#1.12 -428089350 -428089350.17 -428089350.43 -428227812#1 -428227812#1.9 -428227851#1 -428227851#1.5 -13726934#1 -13726934#1.5 -428227808 -428227847#1 -428227847#1.17 -749622503#15 -749622503#15.9 -749622503#15.31 -749622503#15.46 -749622503#15.51 -749622503#15.67 -749622503#15.85 -749622503#8 -749622503#8.7 -749622503#8.63 -749622503#8.83 -749622503#4 -749622503#4.84 -749622503#2 -749622503#2.9 -749622503#2.29 -749622503#2.64 -749622503#2.84 532166310#0 532166310#0.43 532166310#0.52 -428088883#1 -428088883#1.15 -428088897 -428088888 -737711647 -332223490#1 -332223490#1.19 -428088887#1 -428088887#1.12 -428088892 -428088886#1 -428088886#1.24 -428088886#1.35 -428088886#1.45 6463530#0 6463530#0.2 6463530#0.8 6463530#0.13 6463530#0.54 6463530#0.95 -6456044#5 -6456044#5.7 -6456044#5.86 6467490#0 6467490#0.7 6467490#0.49 6467490#0.78 -401497115 -401497115.113 -401497115.170 -401497115.214 -428233435 -460425668 -460425668.5 425646007#0 425646007#0.10 425646007#0.17 425646007#0.20 425646007#0.22 425646007#0.27 -724644768 -724644768.35 6402586#0 6402586#0.1 6402586#0.4 6402586#0.6 6402586#0.12 6402586#0.35 6402586#0.59 6402586#4 6402586#4.72 6402586#4.75 6402586#4.77 6402586#4.80 208021560#0 208021560#0.2 208021560#0.5 208021560#0.8 208021560#0.11 208021560#0.30 208021560#0.39 208021560#0.44 208021560#0.106 208021560#0.125 208021560#0.133 208021560#0.136 739874553#0 739874553#0.66 739874553#0.80 739874553#0.88 333370569#0 333370569#0.6 333370569#0.13 333370569#0.37 333370569#0.43 333370569#0.66 333370569#0.94 333370569#0.155 333370569#0.178 333370566#0 333370566#0.32 332223494#0 332223494#0.18 332223494#0.35 332223494#0.144 332223494#0.171 22760519#0 22760519#0.7 22760519#0.27 22760519#3 22760519#3.9 22760519#3.21 22760519#3.33 22760519#3.91 965874293#0 965874293#0.9 965874293#0.40 965874293#2 965874293#2.45 760645197#0 760645197#0.6 760645197#0.45 760645197#0.84 844067888#0 844067888#0.8 844067888#0.63 844067888#0.137 844067888#0.187 263712958#0 263712958#0.8 263712958#0.45 263712958#0.101 263712958#0.114 263712958#0.117 263712958#0.119 6445479#0 6445479#0.4 6445479#0.8 6445479#0.186 965874292#10 965874292#10.35 965874292#12 965874292#12.8 965874292#12.69 158123767#0 158123767#0.10 158123767#0.11 158123767#0.50 158123767#0.74 158123767#0.86 158123767#0.115 158123767#0.122 158123767#0.134 158123767#0.139 158123767#0.166 795669781 795669781.52 795669781.56 6497081#6 6497081#6.44 6414318#3 -157167355#0"/>
</vehicle>
</routes>
