<?xml version="1.0" encoding="UTF-8"?>
<routes xmlns:xsi="http: // www.w3.org/2001/XMLSchema-instance" xsi:noNamespaceSchemaLocation="http: // sumo.dlr.de/xsd/routes_file.xsd">
<vType id="veh_passenger" vClass="passenger"/>

<vehicle id = "veh0" type= "veh_passenger" depart="0" >
<route edges =" -813722269#3 -813722269#3.7 -813722269#3.48 -813722269#3.84 -813722269#3.86 620762213#0 620762213#0.9 620762213#0.88 620762212#0 620762212#0.8 620762212#0.52 6343949#6 6343949#7 6343949#8 6343949#8.52 6343949#10 6343949#10.49 6343949#12 6343949#12.47 -525497324#3 -525497324#2 243349944#4 243349944#4.53 243349944#6 243349944#7 -460419011#3 -460419011#2 6464126#3 6464126#3.49 6464126#5 -460419028#3 243349338#0 243349338#0.18 243349338#1 243349338#2 243349338#3 243349338#3.49 243349338#5"/>
</vehicle>
<vehicle id = "veh1" type= "veh_passenger" depart="0" >
<route edges =" -6457203#16 -6457203#16.59 975126260#0 975126260#0.49 -6505136#16 6368504#5 6368504#5.48 6368504#7 6368504#7.50 -6513783#8 -6513783#7 37657905#3 37657905#3.48 37657905#5 37657905#5.10 37657905#5.46 37657905#7 37657905#7.49 476409329 -6383185#5 6384373#1 6384373#2 6384373#2.45 6384373#2.56 -65588097#1 -65588097#1.119 337818330 6463035#0 6463035#0.14 6463035#0.38 6463035#3 -6495801#0 -185485132#12 -185485132#12.125 -185485132#11 -185485132#11.16 243349945#9 243349945#9.50 -6494975#8 -6494975#7 -6494975#6 -6494975#6.81 256994205#3 428246847#0 428246847#0.8 428246847#0.22 6386110#0 6386110#0.16 6386110#0.25 6386110#0.55 -243349338#6 -243349338#6.14"/>
</vehicle>
<vehicle id = "veh2" type= "veh_passenger" depart="0" >
<route edges =" -6522868 -6403883#7 -6403883#6 -6403883#5 -6403883#4 -6403883#3 -6403883#2 158882505#7 158882505#8 8111709#0 8111709#0.47 8111709#2 8111709#2.49 8111709#4 8111709#4.49 -6513783#5 6384359#8 6384359#9 6384359#9.26 -6381494#3 -6381494#3.43 6463017#6 6463017#6.48 -6386837#0 337739268 337739268.124 337739267#0 337818462 337818462.3 337818462.6 337739271#1 337739271#1.6 337739269#0 -460419011#4 243349944#8 -801995081#5 -801995081#5.197 -801995081#5.209 -801995081#2 -801995081#2.109 -801995081#0 243339793#4 243339793#5 243339793#6 243339793#6.50 243339793#6.74 -22917112 -185485118#1 6514312#0 6514312#0.70 -6523501#6 -6523501#6.6 185485127#1 -6494970#4 -6494970#4.172 -6494970#2 -6494970#2.4 -6494970#2.100 6358721#0 6358721#0.9 6415147#4 6415147#5 6415147#6 6351349#2 6351349#3 6351349#3.107 6351349#5 -185483733 -6414318#4 -157167355#0"/>
</vehicle>
<vehicle id = "veh3" type= "veh_passenger" depart="0" >
<route edges =" 817434294 817434294.10 817434294.36 817434294.44 817434294.63 817434294.119 6343949#0 6343949#0.7 6343949#0.86 6343949#3 6343949#3.9 6343949#3.49 620762212#3 6430729#6 6430729#6.47 6430729#6.48 6430729#9 6430729#9.48 6430729#11 6430729#11.51 6430729#13 6430729#13.48 6430729#15 6430729#15.48 6430729#17 6430729#17.51 -620762224#0 -66558981#7 -66558981#7.65 -66558981#7.83 -66558981#7.105 -66558981#7.123 -66558981#2 -66558981#2.131 -66558981#2.234 525497323#2 525497323#2.81 -481291488#2 -481291488#1 -481291488#0 -481291488#0.69 -481291488#0.82 -6447971#10 -6447971#10.11 -6447971#9 -6447971#8 -6447971#7 -6447971#6 -6447971#5 -6447971#4 169917351#6 169917351#7 169917351#7.49 169917351#9 169917351#9.48 169917351#9.87 169917351#12 169917351#12.9 169917351#12.42 169917351#12.90 -6360239#3 -6360239#3.6 -6360239#3.69 -6360239#3.102 6487445#0 6487445#0.8 6415147#0 6415147#0.61 6449462#3 6449462#3.7 6449462#3.50 6449462#3.60 6449462#3.72 6449462#3.87 795669782#0 795669782#0.54 795669782#2 6371720#2 6371720#3 157167355#0"/>
</vehicle>
<vehicle id = "veh4" type= "veh_passenger" depart="3605" >
<route edges =" -813722269#3 -813722269#3.7 -813722269#3.48 -813722269#3.84 -813722269#3.86 620762213#0 620762213#0.9 620762213#0.88 620762212#0 620762212#0.8 620762212#0.52 6343949#6 6343949#7 6343949#8 6343949#8.52 65588093#2 6430729#13 6430729#13.48 -6440348#13 -6440348#13.56 -6440348#13.66 -6440348#13.122 -6440348#13.124 6343949#12 6343949#12.47 -525497324#3 620762218#5 620762218#5.18 620762218#5.80 -66558981#7 -66558981#7.65 -66558981#7.83 -66558981#7.105 -66558981#7.123 -66558981#2 -66558981#2.131 -66558981#2.234 -6481166#12 -293775902#14 -293775902#14.49 -293775902#14.96 -6512920#7 -6512920#7.4 -6512920#7.122 -6512920#7.124 -6512920#5 -6512920#5.6 -6512920#5.9 -6512920#5.119 -6512920#5.124 353690154#12 353690154#12.6 353690154#12.32 -6481166#9 -6481166#9.8 486874837#1 486874837#2 486874837#2.47 460419011#0 460419011#0.101 460419011#1 460419011#1.11 6464126#3 6464126#3.49 -801995081#0 -801995082 481291014#0 481291014#0.53 353690153#0 353690153#0.8 353690153#0.25 353690153#0.87 486875123#0 486875123#0.56 486875123#0.88 22917112 22917113#0 22917113#0.56 22917113#2 -243349338#1 6360256#4 -396055524#1 -396055524#1.29 -396055524#1.40 -396055524#1.64 -396055524#1.86 -256994206#2 -256994206#2.11 -256994206#2.27 -256994206#2.62 -40416132#1 -40416132#1.8 460419011#3 243349944#8 243349944#9 243349944#10 243349944#10.7 243349944#10.84 -6360256#7 -6360256#7.5 6447445#3 6447445#3.51 6447445#5 6447445#5.47 -185485132#8 -185485132#8.81 256994205#2 256994205#2.24 256994205#2.72 -6494975#4 -6494975#4.53 243349338#5"/>
</vehicle>
<vehicle id = "veh5" type= "veh_passenger" depart="3605" >
<route edges =" -6522868 -6403883#7 -6403883#6 6345333 -6457203#14 -6457203#14.67 6368504#3 6368504#3.46 6505136#16 975126260#2 975126260#2.48 603522173#0 603522173#0.48 -6513783#9 -6513783#8 -170683231#20 -170683231#20.51 -170683231#18 -170683231#18.37 -170683231#18.49 -336904472#4 -336904472#4.96 37657905#7 37657905#7.49 476409328#0 476409328#0.201 6384373#0 6384373#1 6460085#2 6460085#2.86 6460085#4 6460085#4.35 -61151096 6383185#6 6383185#7 -476409332#1 -476409332#1.39 -6368504#18 -6368504#18.35 -6368504#18.56 -6368504#18.61 -6368504#14 -6368504#14.46 -6368504#14.56 6381494#13 6381494#13.7 6381494#13.132 6381494#15 6381494#16 933598957 933598957.180 6434058#0 6434058#0.15 6434058#0.33 6434058#0.56 6434058#0.73 6434058#0.96 6434058#0.116 6434058#0.128 6434058#1 481291021#0 6444679 481291024#0 481291024#1 481291024#1.68 481291024#1.82 -179553345#6 -179553345#6.47 -179553345#6.49 -179553345#6.105 -179553345#6.124 -179553345#6.150 -179553345#6.182 -179553345#6.190 -179553345#6.201 -179553345#6.204 394737317#1 394737317#1.24 394737317#1.48 -394736763 -7978479#1 -7978479#1.49 -481291021#6 -481291021#6.10 -481291021#6.14 -481291021#6.20 -481291021#6.36 -481291021#6.79 -481291021#6.92 -481291021#6.102 -481291021#6.112 -481291021#6.122 -481291021#6.133 -6383185#18 -6383185#18.50 -6383185#18.92 -6383185#15 -6383185#15.9 -6383185#13 603522176#10 603522176#10.44 603522176#10.46 8071885#1 8071885#2 6483146#0 6483146#0.10 6483146#0.15 6483146#0.49 6483146#0.58 6483146#0.67 394736758#5 6489854#0 6489854#0.50 -6448615#7 -6428555#3 -6428555#3.49 -6428555#3.68 -6428555#3.83 394736758#7 394736758#7.27 394736758#7.94 394736758#7.106 394736758#7.114 -735164739 -735164739.6 -735164739.10 -735164739.15 735164738 735164738.9 735164738.37 735164738.47 735164736 735164736.7 735164736.13 -6460085#13 -6460085#13.21 6523125#0 -65588097#9 -65588097#8 -65588097#8.39 -65588097#6 -170683231#6 -170683231#6.43 -170683231#6.51 -170683231#3 6495798#2 476409332#7 -6356667#2 -170683231#1 -170683231#1.43 -170683288#0 -170683288#0.47 739678025#0 739678025#0.9 739678025#0.14 739678024#0 739678024#0.21 739678024#0.22 -912599281#1 -912599281#1.10 -912599281#1.25 -912599281#1.45 -40416127#2 -40416127#2.7 -40416127#2.26 -279467136#3 -279467136#3.77 -279467136#3.101 -170683665#4 -170683665#4.47 -170683665#2 -170683665#2.49 -170683665#2.51 -170683665#2.95 -6495801#1 6463035#4 6463035#4.46 6463035#4.48 6463035#7 6463035#8 6463035#8.49 6349133#1 170683665#7 6353867#0 40416130#2 6353172#1 6414237#2 6414237#2.7 6414237#2.43 6414237#2.81 -243352868#3 -243352868#3.6 -243352868#1 -243352868#1.19 -170683665#11 -170683665#11.54 -6353177#4 -6353177#3 -6353177#3.7 -6353177#3.98 -6353177#3.134 336908262#4 336908262#4.6 -359671039#10 -359671039#10.86 805658294#9 805658294#9.71 808266757#0 808266757#0.7 352434874#4 352434874#4.20 352434874#4.33 352434874#4.43 352434874#4.55 352434874#4.68 352434874#4.74 6474773#1 6474773#1.19 6474773#1.72 6474773#1.81 32135618#0 32135618#0.7 32135618#0.15 32135618#0.23 32135618#0.31 32135618#0.38 32135618#1 32135618#1.53 336908261#0 336908261#0.6 336908261#0.47 336908261#0.72 -6468802#6 -808266757#6 -336908257#9 -336908257#8 -243349944#32 6409640#12 -243349945#23 -243349945#23.41 -243349945#21 -243349945#20 -352434874#2 243349944#28 243349944#29 -243349941#10 -243349941#10.85 -243349941#8 -243349941#7 -243349941#7.26 -243349941#5 -243349941#4 -243349941#3 -32143377#1 -32143377#1.40 243349331#0 243349331#0.15 -6336174#5 -6336174#4 6449970#10 -6464130#3 -6464130#3.41 -359671039#1 -359671039#0 -6441276#1 -6441276#1.40 -6501822#7 -8071924#4 6472293#6 6472293#6.106 795671505#0 795671505#0.10 795671505#0.55 795671505#2 243349338#8 160624556 160624556.10 438895608#0 438895608#0.54 -359671039#3 243349338#10 243349338#11 243349338#11.79 -6506505#7 -6506505#7.50 6464130#5 243349331#2 243349331#2.15 243349331#2.84 351740958#0 351740958#0.23 351740958#0.76 351740959 -263665039 -263665039.32 -263665039.58 -263665039.72 532125609#0 -6447445#15 -6447445#14 160624558#0 160624558#0.9 160624558#0.16 160624558#1 160624558#2 -805658294#7 -805658294#7.50 -805658294#5 -805658294#5.50 -805658294#3 -805658294#3.49 -805658294#1 -805658294#1.44 -805658294#1.57 -185485132#11 -185485132#11.16 243349945#9 243349945#9.50 243349945#11 243349945#11.47 243349945#13 243349945#13.48 -6472289#2 -6472289#1 -6447445#11 -6447445#10 -6447445#10.48 -6494975#6 -6494975#6.81 256994205#3 428246847#0 428246847#0.8 428246847#0.22 6386110#0 6386110#0.16 6386110#0.25 6386110#0.55 -243349338#6 -243349338#6.14"/>
</vehicle>
<vehicle id = "veh6" type= "veh_passenger" depart="3605" >
<route edges =" 6457203#17 -6428544#18 -6428544#18.43 -6428544#18.144 -6428544#15 -6428544#15.8 -6462093 -6462093.45 -6462093.54 -6462093.65 -6462093.80 -6462093.95 -6462093.117 -6462093.128 -6462093.141 -6462093.175 -6323849#1 -6323849#1.28 -6411908#6 -8071379#1 -8071379#1.46 6346524#4 6346524#4.124 6346524#4.138 -263668130#0 337099385#1 -6428544#6 428098976#3 428098976#3.15 428098976#3.23 -8071658#2 -8071381#2 -8071381#1 -8071381#1.135 -462701467#1 -462701467#1.25 8071380#0 8071380#0.4 8071380#0.8 8071380#0.20 8071380#0.54 8071380#0.57 8071380#0.60 8071380#0.63 -158882561#3 61958425 -6368665#5 -6368665#5.9 -6368665#5.17 -6368665#5.26 -6368665#5.35 -6368665#5.53 -158882511#0 896104581#0 896104581#0.119 158882558 -8071890#1 -8071890#1.42 -171739214#8 428098981 428098987#0 428098987#0.22 428098987#0.51 428098984#0 428098984#0.14 428098980#0 428098980#0.10 428098983 428098983.4 428314458 428314461 428098979#0 428098979#0.14 428098978#0 428098978#0.6 428098982 428314470 428314464 428098977 -6346308#11 -6346308#11.43 -6346308#11.48 -752851600#12 -752851600#12.41 -6414229#12 -6358524#8 -6358524#8.71 -6358524#8.120 6464391#6 6464391#6.5 6464391#6.66 6464391#9 6464391#9.7 6464391#9.49 6464391#9.91 6464391#13 6464391#13.8 6464391#13.49 6464391#13.91 -6366765#9 -6366765#9.7 -6366765#9.123 6414229#4 6414229#4.5 6414229#4.47 6414229#4.88 749754758#8 749754758#8.5 749754758#10 6368518#4 6368518#4.46 621088607#0 6348400#0 -215404534#1 215404533 51476458 6366765#0 6366765#0.3 6366765#0.7 6366765#0.10 6366765#0.14 6366765#0.17 6366765#0.86 6366765#0.127 6366765#0.141 6366765#4 -6346308#1 -6346308#1.49 -6508650#3 -6508650#3.116 -6508650#3.247 -6508650#3.259 -6508650#2 -6508650#2.140 -6508650#2.252 436163947#0 436163947#0.8 436163947#0.75 460423542#0 460423542#0.9 6430733#0 -460421473#1 -460421473#1.60 -460421473#1.62 -460421473#1.67 -65588116#5 -65588116#5.12 -65588116#5.38 -65588116#5.44 -65588116#5.64 -65588116#5.81 -65588116#1 -65588116#1.113 6415868#0 6415868#0.47 -6511393#6 -6511393#6.32 -6511393#6.48 -6511393#6.81 -6511393#6.115 723052304#0 6349123#3 6349123#3.10 6349123#3.63 6349123#3.77 6415868#3 6415868#3.71 -6461453#5 -6461453#5.36 -6461453#5.50 -6461453#5.66 -6461453#5.116 6447455#0 6447455#0.5 6447455#0.10 158612542#6 158612542#6.7 158612542#6.50 158612542#6.74 158612542#8 158612542#8.37 158612542#8.77 158612542#8.79 -6343952#4 -6343952#4.87 -6343952#4.91 -6343952#3 -6343952#3.3 -6343952#3.7 -6343952#2 6511393#8 6430733#3 6430733#3.48 6430733#5 6430733#5.62 6461453#17 6461453#17.40 6461453#17.73 6461453#17.80 6474762#3 6474762#3.35 6474762#3.38 6474762#3.42 6474762#3.46 6474762#3.49 6474762#3.54 95600805#0 95600805#0.117 331930455#0 331930455#0.9 331930455#0.42 331930455#0.49 331930455#0.60 331930455#0.86 623536799#0 623536799#0.9 623536799#0.30 623536799#0.39 623536799#0.58 623536799#0.61 623536799#0.92 6400834#0 6400834#0.8 6400834#0.121 65588084#0 65588084#0.8 65588084#0.88 6346526#0 6346526#0.6 6346526#0.99 6346526#0.121 337668916#4 337668916#4.6 337668916#4.52 6411908#1 6411908#1.103 6411908#1.111 -171739214#13 -171739214#12 -171739214#11 6368665#0 6368665#0.4 6368665#0.6 6368665#0.48 6368665#2 158882517#1 158882517#2 6411908#4 158882511#4 -160552467#9 158882517#4 -6403883#2 -6403883#1 -6403874#2 -6403874#2.90 337668916#10 337668916#11 337668916#11.20 337668916#11.35 8071899 6457203#0 -171739214#24 -171739214#24.39 -171739214#24.44 -171739214#24.63 6469837#0 6469837#0.39 158882505#8 6457203#5 6457203#5.28 6457203#5.42 6457203#5.68 6457203#5.82 6457203#5.104 -158882517#7 -158882517#7.6 -158882517#7.8 -158882517#7.10 -158882517#7.11 -158882517#7.13 -158882517#7.33 6469837#3 158882511#9 158882511#9.51 8111707#0 8111707#0.47 -6505136#14 -6505136#13 -6505136#13.115 8111709#2 8111709#2.49 8111709#4 8111709#4.49 -6513783#5 6384359#8 6384359#9 6384359#9.26 -6381494#3 -6381494#3.43 -6463017#5 -6463017#4 -6463017#4.49 -6463017#4.52 -6464042#1 -6464042#1.52 -6440348#14 6430729#15 6430729#15.48 525497324#8 6513783#0 962517344 962517344.33 -6381494#0 -620762224#1 -620762224#0 343521145#0 343521145#0.47 343521145#0.69 337739267#0 337818462 337818462.3 337818462.6 337739271#1 337739271#1.6 337739269#0 337739269#1 337739269#1.30 481291013#0 481291013#0.16 481291013#0.30 481291013#0.70 481291013#0.75 481291013#0.79 481291013#0.109 481291013#0.113 737709039#0 737709039#0.8 737709039#0.14 6383185#0 6383185#0.82 6383185#0.151 6383185#3 6383185#3.8 6383185#5 61151096 -6460085#4 -6460085#4.20 -6460085#3 -6460085#3.55 -6460085#1 -6460085#1.27 -6460085#1.86 -6460085#1.119 460399791#0 460399791#0.9 460399791#0.31 460399791#0.97 460399791#0.99 169730574#0 169730574#0.11 169730574#0.29 169730574#0.31 854082601 854082601.11 854082601.52 460421484#0 460421484#0.12 428315592#0 428315592#0.12 428315592#0.53 428315592#0.95 -6448612#3 -6448612#3.16 -6448612#1 -6448612#1.133 -22917113#10 -22917113#10.7 -22917113#10.129 -22917113#10.132 -361784407#3 -361784407#3.43 -361784407#3.58 -361784407#3.88 -6360256#13 -6360256#13.8 -6360256#13.10 -6360256#13.19 -6360256#13.61 -6360256#13.76 -6360256#13.125 243349945#3 243349945#3.5 243349945#3.45 243349945#3.49 243349945#6 243349945#6.48 243349945#6.88 -185485132#10 -185485132#9 -6447445#6 -6447445#6.50 -22917113#4 -256994205#0 -256994205#0.33 6360256#5 6360256#6 6360256#6.122 -243349944#12 -243349944#12.8 -243349944#12.85 -243349944#9 -801995081#5 -801995081#5.197 -801995081#5.209 -40416132#1 -40416132#1.8 -460419011#2 -460419011#1 -460419011#1.97 -243339793#1 -243339793#1.46 -6447971#10 -6447971#10.11 -6447971#9 -6447971#8 -6447971#7 6463532#0 6463532#0.49 -6515975#7 -6467507#5 -6467507#5.50 -6467507#3 -6481166#5 -6481166#4 169917351#4 169917351#4.51 169917351#6 169917351#7 169917351#7.49 6380913#4 6507809#7 6507809#7.46 6507809#7.87 -6516509#10 -6516509#10.6 -6516509#10.84 -6516509#7 -6516509#7.7 -6516509#7.24 -6516509#7.39 -6516509#7.43 -6516509#7.58 -6516509#7.85 -6463536#1 -6463536#1.10 -6463536#1.11 -6463536#1.22 -6463536#1.32 -6463536#1.39 -6463536#1.43 -6463536#1.50 -6463536#1.60 -6463536#1.69 6380913#10 6380913#10.59 6380913#12 6380913#13 6380913#14 801995082 801995081#0 6464126#5 6464126#6 6360256#2 6360256#2.128 243349338#1 -22917113#2 6464126#9 6464126#9.46 -185485132#3 -185485132#3.101 -243339793#10 -243339793#10.50 -22917112 481291012#0 481291012#0.24 481291012#0.32 -185485132#1 -185485132#1.196 926425191#0 926425191#0.5 6494970#7 481291012#5 481291012#5.49 481291012#7 481291012#7.20 8071924#0 8071924#0.13 -6391677 926425191#4 926425191#4.20 6472293#4 6472293#4.162 8071924#4 8071924#5 259277920#0 259277920#0.29 259277920#0.47 6449970#8 -359671040#1 -359671040#1.39 359671039#0 359671039#1 6464130#2 6464130#2.44 -6449970#10 6336174#4 -6506505#4 -6506505#3 -6506505#2 -6463541#4 -6463541#4.39 -6463541#4.42 6449970#4 -185485117#3 -6396312#2 -6396312#1 -6396312#0 -6507818#0 6501822#1 -6507813#3 -6507813#3.42 -6507813#3.51 -6507813#0 6391682#2 6391682#2.12 6391682#2.24 6391682#2.34 6391682#2.45 -185485127#5 -185485127#5.56 336908264#2 336908264#2.29 -169917351#27 -169917351#27.11 -169917351#27.76 6494970#3 6494970#3.7 -185485127#1 -6523501#4 -6523501#4.175 -6523501#2 -6523501#2.5 -6523501#2.101 6497081#0 6497081#0.8 6415147#3 6415147#4 428247193#3 428247193#3.27 486632638#0 486632638#0.14 486632638#0.27 256996977#0 256996977#0.9 256996977#0.40 6489809#0 6489809#0.40 6415147#6 6351349#2 642753173 6354836#3 6354836#4 6354836#5 6354836#5.54 6354836#7 6354836#7.92 6467368#4 6354794#0 -6485999#4 -6485999#4.7 -6367253#1 -6367253#1.137 -6467368#2 6351337#0 6351337#1 6351337#1.120 6496652#4 6496652#4.7 6496652#6 6496652#7 6496652#7.4 22917677#0 22917677#0.6 22917677#0.35 22917677#0.41 -800568295#3 -800568295#3.22 -800568295#3.119 -800568295#3.122 -800568295#3.142 -800568295#3.274 -6522981#4 -6522981#4.130 -6522981#4.139 157167366#0 157167366#0.1 157167366#0.25 157167366#0.46 642738344 6371710#1 6440158#1 157167357#7 6371282#3 6371282#3.9 6371282#3.15 6371282#4 6371282#4.3 6371282#6 6371282#7 157172053#4 754699003#0 754699003#1 754699003#1.6 754699003#3 754699003#3.73 754699003#5 754699003#5.6 -6433087#0 -6433087#0.37 -6433087#0.42 -6513107#1 -6513107#1.4 -6513107#1.9 -6513107#1.116 512126023#1 512126023#1.30 512126023#1.40 512126023#3 512126023#3.2 512126023#3.136 512126023#3.140 512126023#3.156 512126023#3.203 512126023#3.215 512126023#3.227 512126023#3.239 512126022#0 512126022#0.11 512126022#0.46 -185483738#3 -185483738#3.11 -185483738#3.19 -185483738#2 -185483738#2.93 6371720#6 -661086629#0 -185483733 -6414318#4 -157167355#0"/>
</vehicle>
<vehicle id = "veh7" type= "veh_passenger" depart="3605" >
<route edges =" 817434294 817434294.10 817434294.36 817434294.44 817434294.63 817434294.119 816616072#4 816616072#4.7 816616072#4.62 816616072#4.121 816616072#8 816616072#8.6 816616072#8.121 158882495#0 158882495#0.6 6411908#0 337668916#6 337668916#6.37 337668916#6.48 -160552467#0 -620762212#5 -620762212#5.7 6430729#6 6430729#6.47 6430729#6.48 6430729#9 6430729#9.48 6430729#11 6430729#11.51 -65588093#2 6343949#10 6343949#10.49 -6440348#10 -6440348#10.4 -6440348#10.6 -6440348#10.48 -6440348#10.83 620762218#3 620762218#3.7 -525497324#2 243349944#4 243349944#4.53 243349944#6 243349944#7 -460419011#3 40416132#1 40416132#1.90 801995081#3 801995081#3.54 801995081#3.66 243349944#9 243349944#10 243349944#10.7 243349944#10.84 -6360256#7 -6360256#7.5 -6447445#2 -6447445#2.7 -6447445#2.86 396055523#11 396055523#11.17 396055523#11.23 396055523#11.42 396055523#11.62 396055523#11.85 396055523#11.96 396055523#11.121 460419028#0 460419028#0.11 460419028#0.49 460419028#0.79 460419028#0.95 243349338#0 243349338#0.18 -6360256#3 -6360256#3.44 -6464126#6 -6464126#5 -801995081#0 -801995082 -6380913#14 -6425689#3 -6425689#3.44 -460419007#0 -460419007#0.17 -460419007#0.46 -263669069#2 -263669069#2.25 -263669069#2.47 -263669069#2.55 -263669069#0 -6481166#6 -6467507#2 -6467507#2.10 -6467507#2.91 -901474741#2 -901474741#2.7 -901474741#2.9 -901474741#2.88 -876005346#6 -876005346#6.6 -876005346#6.69 -876005346#3 -876005346#2 -876005346#2.9 -876005346#2.90 893868546#0 893868546#0.7 893868546#0.194 353690149#0 353690149#0.9 353690149#0.132 353690149#0.196 893866055#0 893866055#0.7 893866055#0.120 893866055#0.121 893866059#0 893866059#0.8 893866059#0.9 893866059#0.122 -893866060#11 -893866060#11.7 -893866060#11.31 -893866060#11.89 353690148#4 353690148#4.7 353690148#4.121 -893866065#6 -893866065#6.9 -893866065#6.49 -893866065#6.91 -243338979#25 -243338979#25.8 -243338979#25.64 -243338979#25.77 -243338979#25.120 -243338979#20 -243338979#20.7 -243338979#20.121 -243338979#17 -243338979#17.7 -243338979#17.60 -243338979#17.109 -243338979#17.118 -243338979#17.120 -243338979#12 -243338979#12.10 -243338979#12.11 -243338979#12.62 -243338979#9 -243338979#9.5 -243338979#9.31 6494871#0 6494871#0.10 6494871#0.90 -436480245#0 -436480245#0.21 -436480245#0.32 -436480245#0.59 -436480243#3 -436480243#3.10 -436480243#3.19 -436480243#3.38 -6435230#9 -6435230#8 -6463530#13 -6463530#13.11 -6463530#13.50 -6463530#13.94 -6343878#8 -6343878#8.7 -6343878#8.85 -6343878#5 -6343878#5.9 -6343878#5.86 -6343878#2 -6343878#2.2 -6343878#2.6 -6343878#2.85 617435760#1 617435760#1.45 617435760#1.47 617435760#1.87 6435230#3 6435230#3.58 893868549#7 893868549#7.9 893868549#7.13 893868549#7.94 893868549#7.109 893868549#7.125 893868549#7.184 -6476327#7 -6476327#7.6 -6476327#7.57 -6476327#7.85 -617435761#7 -617435761#7.10 -617435761#7.21 -859189430#2 -859189430#2.5 -859189430#2.54 -859189430#2.102 -859189430#2.105 -859189430#2.109 347092908 347092908.18 347092908.44 347092908.47 347092908.49 256996971#0 256996971#0.7 256996971#0.23 256996971#0.32 256996971#0.37 256996971#0.85 32135545#0 32135545#0.9 32135545#0.63 32135545#0.103 893868550#0 893868550#0.5 893868550#0.84 901474739#0 901474739#0.7 901474739#0.111 -22917110#2 -22917110#2.6 -22917110#2.86 -6346769#4 -6346769#4.6 -6346769#4.27 -6346769#4.65 -6346769#4.102 256996974#3 256996974#3.6 256996974#3.29 256996974#3.56 256996974#3.86 256996974#6 256996974#6.9 256996974#6.21 256996974#6.40 256996974#6.89 256996974#11 256996974#11.6 256996974#11.33 256996974#11.65 256996972 256996972.16 256996972.70 881403606#0 881403606#0.12 881403606#0.42 881403606#0.83 881403606#0.85 22917665#0 22917665#0.7 -6445835#1 -6445835#1.53 256996973#0 256996973#0.33 256996973#0.45 256996973#0.49 256996975#0 256996975#0.50 256996975#0.62 256996975#0.65 256996975#0.91 -6516509#20 -6516509#20.12 -6516509#20.14 -6516509#20.29 -6516509#20.33 -6516509#20.42 -6516509#20.45 -6516509#20.65 -6516509#20.78 -6516509#20.106 -6516509#14 -6516509#14.5 -6516509#14.58 -6516509#14.86 6507809#10 6507809#10.8 6507809#10.91 6507809#13 6507809#13.9 6507809#13.77 -6452520#5 -6452520#5.4 -6452520#5.85 -6452520#2 -6452520#2.4 -6452520#2.101 6449462#0 6449462#0.9 6449462#0.46 6449462#3 6449462#3.7 6449462#3.50 6449462#3.60 6449462#3.72 6449462#3.87 795669782#0 795669782#0.54 -6414318#0 -6414318#0.76 -6414318#0.81 460418987#0 460418987#0.4 460418987#0.8 460418987#1 460418987#2 460418987#3 460418987#3.91 460418978#0 460418978#0.8 460418978#0.76 460418978#3 460418978#3.9 460418978#3.49 -6497081#10 -6497081#10.7 6371720#3 157167355#0"/>
</vehicle>
<vehicle id = "veh8" type= "veh_passenger" depart="7210" >
<route edges =" -816616074#1 -816616074#1.10 -816616074#1.14 -816616074#1.119 428341734#4 428341734#4.8 428246439#0 428246439#0.14 428246438#0 428246438#0.8 428246440#0 428246440#0.62 800744529#0 800744529#0.7 800744529#0.52 800744529#0.89 825336588#0 825336588#0.7 349901822#2 349901822#2.21 -620762214 -8071898#3 -8071898#2 -8071898#1 -8071898#1.60 -8071898#1.73 -8071898#1.89 -8071898#1.91 292812445#0 292812445#0.35 292812445#0.50 -65588093#3 -65588093#2 6343949#10 6343949#10.49 -6440348#10 -6440348#10.4 -6440348#10.6 -6440348#10.48 -6440348#10.83 -6440348#7 -6440348#7.9 243349944#0 243349944#0.4 243349944#0.20 243349944#0.49 -525497324#1 -525497324#0 525497323#0 525497323#0.50 66558981#0 66558981#0.29 66558981#0.132 243349944#6 -481291488#4 -481291488#4.47 40416132#0 40416132#0.19 -460419011#2 6464126#3 6464126#3.49 -801995081#0 243339793#4 460419028#5 460419028#5.67 460419028#5.79 460419028#5.105 -481291014#1 -481291014#1.20 -6380913#14 -6380913#13 -6380913#12 -460419008#1 -460419008#1.44 -6515975#8 -6515975#7 6467507#6 6467507#6.51 6467507#8 6467507#8.87 6467507#10 6467507#10.9 6467507#10.76 6467507#10.86 -6360239#9 -6360239#9.84 6507809#13 6507809#13.9 6507809#13.77 6452520#6 6452520#6.7 185485118#0 185485118#0.64 185485118#0.103 185485118#0.149 185485118#1 22917112 243339793#9 243339793#9.48 243339793#11 243339793#11.47 6494975#1 6494975#1.9 6494975#2 243349338#5"/>
</vehicle>
<vehicle id = "veh9" type= "veh_passenger" depart="7210" >
<route edges =" 6457203#17 6457203#18 6457203#18.8 6457203#18.11 37686291#0 37686291#0.47 37686291#0.88 37686291#0.94 37686291#0.98 157284449#0 157284449#0.6 157284449#0.28 242516209#2 242516209#2.53 37657904 -6339665#2 -6339665#2.49 -6339665#2.89 -6339665#2.93 -6505136#18 -6505136#18.3 -6505136#18.6 -6505136#16 -6505136#15 8111707#2 8111707#2.47 -603522174#1 6368504#7 6368504#7.50 -6513783#8 -170683231#20 -170683231#20.51 6381494#12 6381494#12.56 6368504#12 6368504#12.37 6368504#12.47 638348589 -263666867#2 -263666867#2.43 -263666867#2.72 6381494#15 -603522176#3 -603522176#3.50 6513783#11 6513783#11.206 656838750 656838751 392673856 392673856.85 -933598957 -933598957.13 945555824#2 945555824#2.47 481291018 481291020#0 481291020#0.49 481291020#0.62 -481291016 -476409334#1 -476409334#0 476409333#0 476409333#0.45 -6383185#11 -6383185#11.37 -6383185#11.86 -6383185#11.111 -6383185#11.155 476409332#2 476409332#2.43 476409332#4 -65588097#6 170683231#7 170683231#8 170683231#8.40 -6383185#6 -6383185#5 6384373#1 -6460085#1 -6460085#1.27 -6460085#1.86 -6460085#1.119 465799093#0 465799093#0.8 465799093#0.46 465799093#0.91 337818330 428315592#0 428315592#0.12 428315592#0.53 428315592#0.95 -6448612#3 -6448612#3.16 -6448612#1 -6448612#1.133 805680044#5 805680044#5.6 805680044#5.49 805680044#8 805680044#8.47 6356676#0 6356676#1 6356676#2 6356676#2.67 6356676#2.82 6356676#2.92 6349021#0 6349021#1 6349021#1.39 535540393#0 535540393#0.12 535540393#0.32 535540393#0.47 912599280 6488417#0 6488417#0.10 739678026 739678026.4 170683288#0 170683288#0.14 170683231#0 170683231#0.34 170683231#2 6495798#2 476409332#7 476409332#8 476409332#9 476409332#9.68 -6349126#4 -6349126#4.29 -6349126#4.47 -6349126#4.62 -6349126#4.68 -6349126#4.76 -6349126#4.79 -6349126#4.104 -854081622#0 -854081622#0.13 -19000995#2 -19000995#2.7 -19000995#2.29 6414237#0 6414237#0.11 -6353867#1 -6353867#0 -170683665#7 -170683665#6 -170683665#6.49 -279467136#1 -279467136#0 -279467136#0.18 -279467136#0.24 336908262#0 336908262#0.48 6349133#0 6463035#10 6463035#10.48 6463035#12 6463035#12.7 -6521828#3 -6521828#3.7 -6521828#3.107 -6521828#3.133 -359671039#10 -359671039#10.86 805658294#9 805658294#9.71 -532125609#3 243349945#19 243349945#20 -263665040#2 -263665040#2.22 -243349944#28 -352434874#1 -6447445#16 532125609#1 -243349944#26 359671039#6 -243349945#17 -243349945#16 -243349945#16.50 -243349945#14 -243349945#14.50 -243349945#12 -243349945#12.49 -6494975#8 243349944#19 243349944#19.47 -22760521#3 -6447445#10 -6447445#10.48 -6447445#8 -6447445#8.50 -6447445#6 -6447445#6.50 -22917113#4 -22917113#3 243349338#2 243349338#3 243349338#3.49 6494975#3 6494975#3.99 256994205#3 428246847#0 428246847#0.8 428246847#0.22 6386110#0 6386110#0.16 6386110#0.25 6386110#0.55 -243349338#6 -243349338#6.14"/>
</vehicle>
<vehicle id = "veh10" type= "veh_passenger" depart="7210" >
<route edges =" -6457203#16 -6457203#16.59 -6323849#6 -6323849#6.43 -6323849#4 -6323849#4.14 -6323849#4.28 -6323849#4.52 -6323849#4.61 -6323849#4.72 -6323849#2 6462093 6462093.38 6462093.73 6462093.86 6462093.97 6462093.118 6462093.133 6462093.149 6462093.160 6462093.169 -6428544#13 32143939 -263668130#2 -263668130#2.17 -263668130#2.32 -263668130#2.43 -263668130#2.52 -263668130#2.58 -263668130#2.67 -263668130#2.74 -263668130#2.85 -263668130#0 -337099385#0 -337099385#0.153 -337099385#0.159 -61958425 -158882561#2 -158882561#2.11 -158882561#2.28 -158882561#2.46 -158882561#2.60 158882511#0 -6368665#4 -6368665#4.121 -158882517#0 158882558 621283351#0 621283351#0.54 621283351#0.62 6464391#0 6464391#0.12 6464391#0.77 752851600#8 752851600#8.6 752851600#8.88 752851600#11 752851600#11.84 -6346308#9 -6346308#9.33 -6346308#9.41 6358524#12 -8071894#1 6358515#0 8071895#0 8071895#1 8071381#0 8071381#0.67 -6428544#4 -6428544#3 -6428544#3.82 -6358515#2 -215404534#2 6348400#1 6348400#1.133 6348400#1.138 6348400#1.140 -6428544#0 -6428544#0.54 -6428544#0.59 -6479772#3 -6479772#3.5 -6479772#3.10 -6479772#2 -6479772#1 -6479772#1.43 215404533 51476458 6366765#0 6366765#0.3 6366765#0.7 6366765#0.10 6366765#0.14 6366765#0.17 6366765#0.86 6366765#0.127 6366765#0.141 -6368518#1 -6368518#1.50 -6368518#1.97 -6368518#1.99 -6508650#4 -6508650#4.2 -6508650#4.3 6346308#0 6346308#0.52 6346308#2 6346308#2.46 6346308#4 6346308#4.47 -6374789#12 -6374789#12.53 -6414229#10 -6414229#10.49 -6414229#10.92 -749754758#7 -749754758#7.3 -749754758#7.122 -749754758#4 -749754758#4.4 -749754758#4.120 -749754758#1 -749754758#1.7 -749754758#1.102 -6479778#2 -6479778#1 -6479778#1.16 6521205#0 6521205#0.2 6521205#0.12 6521205#0.21 6521205#0.31 6521205#0.34 6521205#0.47 6521205#0.59 6521205#0.69 6521205#0.81 6521205#0.92 749754754#0 749754754#0.11 749754754#1 749754754#1.14 749754754#1.29 -6358498#1 -6358498#1.87 -6461453#18 -6461453#18.7 -6461453#18.14 -6461453#18.47 -6430733#6 -6430733#6.16 -6430733#4 -6430733#4.10 -6511393#8 -6343952#1 -6343952#1.48 -65588116#1 -65588116#1.113 6415868#0 6415868#0.47 6415868#2 6415868#2.24 6415868#2.65 6415868#3 6415868#3.71 6461453#6 6461453#6.38 6461453#6.80 6461453#6.92 6461453#6.95 6343952#4 6343952#4.4 6343952#4.8 158612542#11 158612542#11.75 158612542#11.76 158612542#13 158612542#13.18 158612542#13.36 6474762#5 6474762#5.49 6474762#5.86 428098988#0 428098988#0.8 428098988#0.9 428098988#0.54 428098988#0.75 428246434#0 428246434#0.18 623536799#0 623536799#0.9 623536799#0.30 623536799#0.39 623536799#0.58 623536799#0.61 623536799#0.92 337668911#0 337668911#0.7 337668911#0.37 337668911#0.90 171739214#10 171739214#11 171739214#12 171739214#13 6411908#2 6411908#2.39 6411908#3 -158882517#2 6346524#2 158882511#3 158882511#4 158882511#5 158882511#5.46 158882511#5.58 158882511#8 158882511#9 158882511#9.51 8111707#0 8111707#0.47 -6505136#14 -6505136#13 -6505136#13.115 8111709#2 8111709#2.49 8111709#4 8111709#4.49 6513783#6 37657905#3 37657905#3.48 -6381494#8 -6381494#8.122 -6381494#8.124 -6381494#6 -6381494#6.57 -6381494#6.77 -6381494#6.94 -6381494#3 -6381494#3.43 -6381494#1 -6381494#0 292812445#9 292812445#9.49 337739268 337739268.124 337739267#0 337739267#1 337739271#0 337739271#0.10 337739271#0.13 337739271#1 337739271#1.6 337739269#0 337739269#1 337739269#1.30 -801995081#6 -801995081#6.9 -801995081#5 -801995081#5.197 -801995081#5.209 -801995081#2 -801995081#2.109 6464126#5 6464126#6 6464126#7 6464126#7.50 -22917113#1 -22917113#1.55 -22917112 481291012#0 481291012#0.24 481291012#0.32 -185485132#1 -185485132#1.196 926425191#0 926425191#0.5 926425191#2 926425193#2 926425193#2.6 926425193#2.94 926425193#2.182 926425193#2.204 926425193#2.206 -185485127#3 -185485127#3.10 -6494970#4 -6494970#4.172 -169917351#24 -169917351#24.6 -169917351#24.71 -6523501#2 -6523501#2.5 -6523501#2.101 6497081#0 6497081#0.8 6415147#3 6415147#4 6415147#5 6415147#6 -6351349#1 -6351349#1.48 -6351349#1.82 6472293#0 6472293#0.6 6472293#0.29 -6507813#0 6391682#2 6391682#2.12 6391682#2.24 6391682#2.34 6391682#2.45 185485127#6 6472293#3 185485117#1 6501822#5 6501822#5.157 -8071924#4 -8071924#3 -8071924#3.39 -8071924#3.51 -8071924#0 -8071924#0.15 -428246845 -6386110#6 -6386110#6.5 -6386110#4 -6386110#4.86 6464126#15 6464126#15.47 795671505#2 243349338#8 160624556 160624556.10 438895608#0 438895608#0.54 -359671039#3 243349338#10 6449970#12 532125609#0 -6447445#15 359671039#5 359671039#5.12 243349944#26 243349944#27 352434874#2 352434874#3 808266757#1 -263665040#3 -263665040#3.11 -263665040#3.21 -263665040#3.100 243349945#21 -243349941#11 -243349941#10 -243349941#10.85 -243349941#8 878126486#0 878126486#0.41 878126486#0.73 878126486#0.75 -352434856 -352434856.9 -460419027 352434864#0 352434864#0.8 -243349941#5 -243349941#4 -243349941#3 -243349941#2 -6425683#3 -6425683#3.40 6348024#4 -259277920#2 -259277920#2.56 -6506505#3 -6506505#2 -6463541#4 -6463541#4.39 -6463541#4.42 -6449970#3 -6449970#2 -185485127#11 6396312#1 -6463541#0 -6501822#3 -6501822#2 -6501822#1 -6501822#0 -6501822#0.165 6354836#0 6354836#0.6 6354836#1 6354836#1.40 6354836#3 -256997441#7 -256997441#7.46 6351349#5 661086629#0 661086629#1 661086629#1.93 -6467368#0 -185483738#2 -185483738#2.93 -185483738#0 -6414318#4 -157167355#0"/>
</vehicle>
<vehicle id = "veh11" type= "veh_passenger" depart="7210" >
<route edges =" 817434294 817434294.10 817434294.36 817434294.44 817434294.63 817434294.119 816616072#4 816616072#4.7 816616072#4.62 816616072#4.121 6430729#0 6430729#0.7 6430729#0.86 6430729#3 6430729#3.9 6430729#3.48 620762212#4 620762212#4.122 171739207#2 171739207#2.46 6403874#0 6403874#1 6403874#1.38 6403883#1 158882505#7 158882505#8 -6457203#3 -6457203#3.34 -6457203#3.51 -6457203#3.73 -6457203#3.81 -6457203#0 6384359#0 6384359#0.22 6384359#0.45 6384359#0.50 6384359#4 6384359#4.13 6384359#4.31 6384359#4.51 -6464042#2 -6464042#2.80 6463017#2 6463017#2.44 6463017#2.48 -6513783#1 -6513783#1.10 -6513783#0 -292812445#6 -292812445#6.50 -6440348#14 6430729#15 6430729#15.48 -525497324#7 -525497324#7.39 -525497324#7.54 -525497324#7.112 -525497324#3 -525497324#2 243349944#4 243349944#4.53 -66558981#2 -66558981#2.131 -66558981#2.234 -6481166#12 -6481166#11 -6481166#11.122 -6481166#11.125 -6481166#10 -6481166#10.6 -6481166#10.8 -6481166#10.120 -6481166#9 -6481166#9.8 -486874837#0 -901419468#4 -901419468#4.51 -901419468#4.132 -901419468#4.164 -901419468#4.186 -901419468#4.196 -901419468#4.197 -901419467#2 -901419467#2.9 -901419467#2.49 -901419467#2.54 -901419467#2.71 -901419467#2.91 -876005345#4 -876005345#4.10 -876005345#4.11 -876005345#4.20 -876005345#4.33 -876005345#4.199 -876005346#6 -876005346#6.6 -876005346#6.69 -876005346#3 22917111#0 22917111#0.7 22917111#0.195 -353690160#2 -353690160#2.8 -353690160#2.90 -486844942#6 -486844942#6.9 -486844942#6.25 -486844942#6.67 -486844942#6.92 -486844942#3 -486844942#3.8 -486844942#3.80 -486844942#3.90 243338979#4 243338979#4.8 243338979#4.38 6494871#0 6494871#0.10 6494871#0.90 -436480245#0 -436480245#0.21 -436480245#0.32 -436480245#0.59 -436480243#3 -436480243#3.10 -436480243#3.19 -436480243#3.38 -6435230#9 -6435230#8 -6463530#13 -6463530#13.11 -6463530#13.50 -6463530#13.94 -6463530#9 -6463530#9.9 -6463530#9.49 -6463530#9.91 -6456044#5 -6456044#5.7 -6456044#5.86 347094714#0 347094714#0.6 347094714#0.48 347094714#0.88 347094714#4 347094714#4.6 347094714#4.48 347094714#4.87 -6435230#5 -6435230#5.17 893868549#7 893868549#7.9 893868549#7.13 893868549#7.94 893868549#7.109 893868549#7.125 893868549#7.184 893868549#12 893868549#12.7 893868549#12.90 -893868550#2 -893868550#2.7 -893868550#2.86 901477545#0 901477545#0.8 901477545#0.89 901477545#4 901477545#4.7 901477545#4.69 901477545#7 901477545#7.5 901477545#7.83 901477546#0 901477546#0.5 901477546#0.47 901477546#0.85 6507809#0 6507809#0.7 6507809#0.88 -6481166#4 169917351#4 169917351#4.51 -6447971#3 -6447971#3.29 -6447971#3.37 -6447971#3.61 256996978#0 256996978#0.7 256996978#0.68 6515975#0 6515975#0.8 6515975#0.67 6515975#0.104 6515975#4 6515975#4.43 6515975#6 6515975#7 6463532#2 6463532#2.50 6463536#0 6463536#0.21 6463536#0.30 6463536#0.40 6463536#0.47 6463536#0.52 6463536#0.58 6463536#0.69 6463536#0.79 6463536#0.80 6516509#4 6516509#4.6 6516509#4.33 6516509#4.47 6516509#4.52 6516509#4.66 6516509#4.84 6516509#8 6516509#8.7 6516509#8.85 6516509#11 6516509#11.6 6516509#11.34 6516509#11.86 6516509#15 6516509#15.7 6516509#15.35 6516509#15.48 6516509#15.68 6516509#15.70 6516509#15.79 6516509#15.84 6516509#15.98 6516509#15.101 6461236#0 6461236#0.9 6461236#0.24 6461236#0.44 6461236#0.58 6461236#0.60 6384260#3 6384260#3.54 -6487445#4 -6487445#4.15 -6487445#4.55 6415147#0 6415147#0.61 6415147#2 6497081#2 6497081#2.38 6497081#2.47 6497081#2.53 6497081#2.60 6497081#2.67 6497081#2.70 6497081#2.74 6497081#2.81 6497081#2.120 6497081#6 6497081#6.44 -6414318#2 -6414318#2.8 795669782#2 -6371720#1 -6371720#1.81 460418987#2 -6371704#2 -6371704#2.42 -460418992#2 -460418992#2.50 -460418992#2.92 -337742188#11 -337742188#11.8 -337742188#11.28 -337742188#11.102 22917670#3 22917670#3.7 22917670#3.35 22917670#3.71 22917670#7 22917670#7.7 22917670#7.71 -795846818#4 -795846818#4.7 -795846818#4.95 -795846818#4.102 460418978#3 460418978#3.9 460418978#3.49 -6497081#10 -6497081#10.7 6371720#3 157167355#0"/>
</vehicle>
<vehicle id = "veh12" type= "veh_passenger" depart="10815" >
<route edges =" -813722269#3 -813722269#3.7 -813722269#3.48 -813722269#3.84 -813722269#3.86 620762213#0 620762213#0.9 620762213#0.88 620762212#0 620762212#0.8 620762212#0.52 6343949#6 65588100#2 65588100#2.20 65588100#2.57 65588100#5 65588100#5.122 -171739207#3 -171739207#3.48 -171739207#1 -171739207#1.50 6411908#0 6411908#1 6411908#1.103 6411908#1.111 171739214#14 -160552467#5 -160552467#5.18 -160552467#5.25 -160552467#5.30 -160552467#5.63 -160552467#5.85 337668916#8 337668916#8.47 337668916#10 6463027#0 6463027#0.20 6463027#0.21 6463027#0.23 6463027#0.25 6463027#0.26 6463027#0.28 6463027#0.31 6463027#0.33 6463027#0.35 6463027#0.37 6463027#0.39 6463027#0.76 292812446#5 8071899 6457203#0 -171739214#24 -171739214#24.39 -171739214#24.44 -171739214#24.63 6469837#0 6469837#0.39 6469837#2 6469837#3 6469837#4 6469837#4.92 -6368504#0 6403883#5 6345333 6457203#15 6457203#15.68 6457203#16 6457203#16.23 6457203#17 6457203#18 6457203#18.8 6457203#18.11 6457203#20 6457203#20.10 6457203#20.25 6457203#20.27 6457203#23 6457203#23.25 6457203#23.175 460423543 460423543.13 460423543.157 460423543.177 460423543.190 460423545#0 460423545#0.14 6463331#0 6463331#1 6463331#2 6463331#2.38 6463331#2.41 504279350#0 504279350#0.3 504279350#0.4 504279350#0.6 504279350#0.9 -6363153#2 -6363153#1 -157284449#1 242516209#2 242516209#2.53 37657904 603522176#0 603522176#0.48 6513783#11 6513783#11.206 945555824#0 945555824#0.41 933598957 933598957.180 296370678#0 296370678#0.14 296370678#0.51 296370678#0.58 -481291018 -638348588#1 -638348588#0 -263666867#2 -263666867#2.43 -263666867#2.72 -603522173#3 -603522173#3.49 -6513783#9 -6368504#8 -6368504#8.48 603522174#1 -8111707#3 -8111707#3.49 -6505136#14 -6505136#13 -6505136#13.115 -6505136#12 -6505136#12.73 -6505136#12.84 -6505136#12.102 -6505136#12.111 -6505136#12.122 -6505136#6 -6505136#6.18 6463017#0 6463017#0.48 -6464042#1 -6464042#1.52 -6440348#14 6430729#15 6430729#15.48 525497324#8 292812445#7 292812445#7.46 292812445#9 292812445#9.49 292812445#11 292812445#11.49 481291015#0 481291015#0.20 481291015#0.59 -343521145#3 -343521145#3.32 -343521145#3.66 -343521145#3.101 -343521145#3.142 -343521145#3.155 337739267#0 337739267#1 -481291488#10 -481291488#10.44 -481291488#10.61 -481291488#10.85 -481291488#10.132 -481291488#10.142 243349944#7 243349944#8 243349944#9 396055523#9 396055523#9.6 396055523#9.20 396055523#9.54 396055523#11 396055523#11.17 396055523#11.23 396055523#11.42 396055523#11.62 396055523#11.85 396055523#11.96 396055523#11.121 396055524#0 396055524#0.9 396055524#0.30 396055524#0.54 396055524#0.65 256994205#0 256994205#0.67 22917113#4 -6447445#4 -6447445#4.47 6360256#6 6360256#6.122 6360256#8 6360256#8.125 243349945#3 243349945#3.5 243349945#3.45 243349945#3.49 243349945#6 243349945#6.48 243349945#6.88 243349945#9 243349945#9.50 6494975#9 6494975#9.108 6494975#9.119 6494975#10 6494975#10.11 6494975#10.19 805680044#10 279467136#0 279467136#0.117 279467136#0.122 -6463035#7 6356676#1 6356676#2 6356676#2.67 6356676#2.82 6356676#2.92 6356671#0 6356671#0.13 6356671#0.39 428315591#1 6356667#0 6356667#0.10 6356667#0.44 170683231#2 -6495798#1 -6495798#1.232 -6495798#1.266 -428315592#4 -428315592#4.102 -428315592#4.134 -428315592#2 -428315592#2.25 -428315592#2.67 -428315592#2.108 -337818330 65588097#0 65588097#0.9 -6384373#4 -6384373#4.41 -6384373#4.51 -6384373#1 6383185#5 61151096 -6460085#4 -6460085#4.20 6464374 65588097#4 65588097#4.20 65588097#6 476409332#5 476409332#6 6495798#3 -6345330#1 -6345330#0 6460085#9 6460085#9.41 6460085#9.71 6523125#0 6523125#1 6523125#2 -170683288#5 -170683288#5.41 -170683288#3 -170683288#3.39 -170683288#3.69 -170683288#3.76 476409332#9 476409332#9.68 -6349126#4 -6349126#4.29 -6349126#4.47 -6349126#4.62 -6349126#4.68 -6349126#4.76 -6349126#4.79 -6349126#4.104 -854081622#0 -854081622#0.13 -337818332#2 -337818332#2.7 -337818332#2.70 6488417#0 6488417#0.10 382551018 739678024#0 739678024#0.21 739678024#0.22 -912599281#1 -912599281#1.10 -912599281#1.25 -912599281#1.45 -6349021#2 -6349021#2.11 6464371#0 6464371#0.8 6464371#0.32 -279467136#3 -279467136#3.77 -279467136#3.101 170683665#5 170683665#5.50 170683665#7 170683665#8 6353172#0 40416130#3 40416130#3.42 40416130#3.45 -243352868#1 -243352868#1.19 -6521828#4 6463035#14 -6369950#0 -336908262#6 -359671039#10 -359671039#10.86 -805658294#8 -805658294#7 -805658294#7.50 -6472289#3 243349945#15 243349945#15.47 243349945#17 -359671039#6 243349944#26 532125609#2 243349945#19 243349945#20 263665040#3 263665040#3.26 263665040#3.104 263665040#3.115 808266757#2 808266757#2.40 808266757#4 808266757#4.120 808266757#6 6468802#6 6341490#0 6341490#0.24 6341490#0.57 6341490#0.93 6341490#0.128 -6463022#5 -6463022#5.50 -6463022#5.63 -6463022#5.68 -6463022#5.73 -6463022#4 -6463022#4.10 -6463022#4.17 -6463022#4.24 6472195#2 6472195#2.117 6472195#2.124 6472195#2.126 6472195#2.128 6472195#2.134 6472195#2.151 6472195#2.158 6472195#2.165 6472195#2.173 6472195#4 40416130#15 40416130#15.35 40416130#18 40416130#18.5 -304120724 -304120724.10 -8071850 -8071850.30 -8071850.45 -8071850.53 -8071850.63 -8071850.75 -8071850.81 -8071850.89 -8071849#6 -8071849#6.38 -8071849#6.58 -8071849#6.73 -8071849#6.138 -8071849#6.148 -8071849#6.163 -8071849#6.177 -8071849#6.221 243352637#0 243352637#1 243352637#1.16 243352637#1.33 243352637#1.49 243352637#1.68 -6344425#1 -6344425#1.37 -6344425#1.51 -6344425#1.108 -6344425#1.115 -6344425#1.134 -6430750#2 -6430750#2.7 -6430750#2.19 -6354200#1 -6343958#2 -6343958#1 -6343958#0 -336908257#8 -243349944#32 -6409640#11 -6447445#23 -6447445#23.8 -6447445#23.42 -243349941#8 -243349941#7 -243349941#7.26 -352434864#1 -352434864#1.74 351740958#0 351740958#0.23 351740958#0.76 351740959 -263665039 -263665039.32 -263665039.58 -263665039.72 -438895608#1 -359671039#3 243349338#10 -6449970#11 6464130#4 6464130#5 -243349331#1 -243349331#1.102 -6336174#5 -6336174#4 -6336174#3 -6336174#3.40 -359671039#0 359671040#0 359671040#0.40 -6449970#8 259277920#1 -6506505#3 -6506505#2 -6506505#1 -6506505#1.22 -6467510#1 -6467510#1.38 -6449970#2 -185485127#11 6396312#1 6396312#2 -185485117#2 6501822#5 6501822#5.157 -8071924#4 6472293#6 6472293#6.106 795671505#0 795671505#0.10 795671505#0.55 6464126#17 6464126#17.40 6501822#11 6501822#12 160624556 160624556.10 438895607 438895607.119 160624558#0 160624558#0.9 160624558#0.16 -243349944#24 -243349944#24.50 -243349944#22 -243349944#22.50 -22760521#3 -22760521#2 -22760521#2.81 -22760521#2.121 428246847#0 428246847#0.8 428246847#0.22 6386110#0 6386110#0.16 6386110#0.25 6386110#0.55 -243349338#6 -243349338#6.14"/>
</vehicle>
<vehicle id = "veh13" type= "veh_passenger" depart="10815" >
<route edges =" -816616074#1 -816616074#1.10 -816616074#1.14 -816616074#1.119 428341734#4 428341734#4.8 428246439#0 428246439#0.14 428246438#0 428246438#0.8 428246440#0 428246440#0.62 800744529#0 800744529#0.7 800744529#0.52 800744529#0.89 825336588#0 825336588#0.7 96029553#0 96029553#0.9 96029553#0.15 96029553#0.59 8071900#0 8071900#0.7 8071900#0.18 8071900#0.88 -22917111#26 -22917111#26.7 -22917111#26.41 -22917111#26.121 -22917111#22 -22917111#22.9 -22917111#22.144 -22917111#19 -22917111#19.8 -22917111#19.123 -22917111#19.125 -22917111#19.126 6464138#4 6464138#4.6 6464138#4.51 6464138#4.88 6464138#8 6464138#8.7 6464138#8.49 6464138#8.88 -6512920#5 -6512920#5.6 -6512920#5.9 -6512920#5.119 -6512920#5.124 353690154#12 353690154#12.6 353690154#12.32 353690154#15 353690154#15.50 243339793#0 243339793#0.48 243339793#2 243339793#2.49 243339793#4 243339793#5 -6360256#0 -6360256#0.8 486875123#0 486875123#0.56 486875123#0.88 481291012#0 481291012#0.24 481291012#0.32 185485132#2 185485132#2.104 185485132#3 185485132#3.10 185485132#4 -243349338#2 -22917113#2 -6464126#8 -6464126#8.50 6360256#2 6360256#2.128 6360256#4 6360256#5 6447445#3 6447445#3.51 -22917113#4 256994205#1 256994205#2 256994205#2.24 256994205#2.72 -6494975#4 -6494975#4.53 243349338#5"/>
</vehicle>
<vehicle id = "veh14" type= "veh_passenger" depart="10815" >
<route edges =" 817434294 817434294.10 817434294.36 817434294.44 817434294.63 817434294.119 816616072#4 816616072#4.7 816616072#4.62 816616072#4.121 816616072#8 816616072#8.6 816616072#8.121 6346526#0 6346526#0.6 6346526#0.99 6346526#0.121 -337668916#3 -337668916#3.10 -337668916#3.49 -337668916#3.92 337668911#0 337668911#0.7 337668911#0.37 337668911#0.90 -171739214#9 -171739214#8 -171739214#7 -171739214#7.13 -171739214#7.36 -171739214#7.52 -171739214#7.90 752851600#4 752851600#4.6 752851600#4.8 752851600#4.28 752851600#4.34 752851600#4.35 752851600#4.38 752851600#4.44 752851600#4.97 752851600#8 752851600#8.6 752851600#8.88 -6414229#12 -6414229#11 -6414229#10 -6414229#10.49 -6414229#10.92 -6414229#7 -6414229#7.8 -6414229#7.48 -6414229#7.90 -6366765#6 -6366765#6.8 6346308#2 6346308#2.46 6346308#4 6346308#4.47 6374789#13 8071894#0 6358515#0 8071895#0 8071895#1 8071381#0 8071381#0.67 6428544#5 6428544#6 6428544#7 6428544#7.39 6428544#7.45 6428544#7.51 6428544#7.57 6428544#7.76 6428544#7.83 -6346524#7 -263668130#0 -337099385#0 -337099385#0.153 -337099385#0.159 -61958425 158882561#3 -8071380#1 -8071380#1.2 -8071380#1.5 -8071380#1.8 -8071380#1.11 -8071380#1.45 -8071380#1.57 -8071380#1.61 -6470834 -6470834.4 -6470834.8 -6470834.12 -428098986 -428098986.2 -428098986.6 -428314467 -428314467.16 -428314460 -428098985#1 -428098985#1.1 621283354 896104581#0 896104581#0.119 158882517#0 158882517#1 158882517#2 158882517#3 158882517#4 6403883#3 -158882511#7 -158882511#7.20 -158882511#7.33 160552467#10 160552467#10.81 160552467#10.91 160552467#10.102 160552467#11 160552467#11.10 160552467#11.22 160552467#11.49 160552467#11.58 160552467#11.67 160552467#11.76 160552467#11.83 160552467#11.93 160552467#11.104 160552467#11.114 160552467#11.125 6323849#3 6323849#3.9 6323849#3.21 6323849#3.30 6323849#3.53 6323849#3.67 6323849#5 6323849#5.107 -6457203#15 -6457203#15.22 -6345333 -6403883#5 6368504#0 6368504#1 6368504#1.33 -6457203#13 -6457203#13.26 -158882511#9 -158882511#9.24 -6469837#3 -6469837#2 -158882505#7 -158882505#6 -160552467#7 -160552467#7.43 -160552467#7.73 -160552467#7.78 171739214#15 171739214#15.31 171739214#15.57 -6403874#2 -6403874#2.90 -6403874#0 171739207#4 171739207#4.40 171739207#4.43 171739207#4.47 171739207#4.50 171739207#4.52 171739207#4.54 171739207#4.77 171739207#4.80 171739207#4.82 171739207#4.85 171739207#4.87 171739207#4.90 171739207#4.113 8071898#0 8071898#0.8 8071898#0.10 8071898#0.26 8071898#0.40 8071898#2 -6343949#7 -65588100#1 -65588100#1.65 -826314455#3 -826314455#3.64 -826314455#3.71 -826314455#3.76 -826314455#3.90 -826314455#3.118 -349901821 -826314456#4 -826314456#4.12 -826314456#4.19 -826314456#4.65 -826314456#4.106 -337673339 -337673337 185882764 185882764.13 185882764.14 185882765 185882765.16 185882765.26 185882765.30 185882765.31 -243338979#28 -243338979#28.13 -243338979#28.49 -243338979#28.142 -243338979#28.143 893866065#3 893866065#3.6 893866065#3.48 893866065#3.88 -353690148#6 -353690148#6.8 -353690148#6.122 -353690148#3 -353690148#3.7 -353690148#3.59 -353690148#3.121 893866056#0 893866056#0.8 893866056#0.64 893866056#0.88 353690154#0 353690154#0.7 353690154#0.49 353690154#0.90 353690154#4 353690154#4.6 353690154#4.49 353690154#4.54 353690154#4.87 -6440371#2 -6440371#2.9 -6440371#2.11 -6440371#2.121 -6440371#2.122 460419029#9 460419029#9.7 460419029#9.45 486874837#0 -6481166#8 -6481166#8.162 -6481166#6 -6481166#5 6507809#3 6447971#5 6467507#4 6467507#4.48 6515975#7 -6463532#1 -6463532#1.50 6447971#7 6447971#8 6447971#9 486874837#2 486874837#2.47 460419013#0 460419013#0.51 -6380913#14 -6425689#3 -6425689#3.44 -460419007#0 -460419007#0.17 -460419007#0.46 460419008#0 460419008#0.50 -6380913#11 -6380913#11.53 -6380913#7 -6380913#7.22 -6380913#5 6507809#7 6507809#7.46 6507809#7.87 6507809#10 6507809#10.8 6507809#10.91 6507809#13 6507809#13.9 6507809#13.77 6452520#6 6452520#6.7 185485127#0 185485127#1 -6494970#4 -6494970#4.172 -6494970#2 -6494970#2.4 -6494970#2.100 -460421482#6 -460421482#6.7 -460421482#6.25 -460421482#6.31 -460421482#6.72 6497081#0 6497081#0.8 6497081#2 6497081#2.38 6497081#2.47 6497081#2.53 6497081#2.60 6497081#2.67 6497081#2.70 6497081#2.74 6497081#2.81 6497081#2.120 6497081#6 6497081#6.44 -6414318#2 -6414318#2.8 795669782#2 795669782#3 795846818#0 795846818#0.1 460418978#3 460418978#3.9 460418978#3.49 369455641#1 369455641#1.28 369455641#1.78 -512126023#7 -512126023#7.8 -512126023#7.19 -512126023#7.31 -512126023#7.44 -512126023#7.91 -512126023#7.107 -512126023#7.111 -512126023#7.245 -512126023#2 -512126023#2.37 -512126023#2.47 -512126023#0 -428247196#1 -428247196#1.16 428100741#0 428100741#0.10 -754699003#6 -754699003#6.36 -6351337#5 -6351337#5.5 -6351337#5.8 -6351337#5.119 -6496652#3 -6496652#3.8 -185483738#8 -185483738#8.6 -185483738#8.58 6485999#0 6485999#0.42 -6351337#0 6467368#2 6367253#0 6367253#0.7 22917678#0 22917678#0.10 22917678#0.136 -6496652#6 6367253#5 -754699003#2 -754699003#2.70 -6354794#5 -6354794#5.7 -6354794#5.119 -6354794#2 -6354794#2.7 -6354794#0 -6467368#4 -6354836#8 -6354836#8.7 -6354836#6 -6354836#6.92 661086630#2 661086630#2.15 661086630#2.53 661086630#2.70 661086630#2.73 -6335280 -6335280.5 -6335280.11 -6335280.113 -620762211#2 -620762211#2.9 -620762211#2.17 -620762211#2.71 -620762211#2.114 -620762211#2.151 -620762211#2.177 -6415147#8 6354836#1 6354836#1.40 -642753173 -6351349#2 -6415147#6 6489809#2 -295783215#1 14374224#0 14374224#0.36 14374224#0.80 14374224#0.83 14374224#4 14374224#4.44 14374224#4.54 14374224#4.84 14374224#4.122 185483738#0 -6371720#5 -6371720#5.41 157167355#0"/>
</vehicle>
<vehicle id = "veh15" type= "veh_passenger" depart="10815" >
<route edges =" -814326475#2 -814326475#2.9 -814326475#2.24 -814326475#2.41 -814326475#2.70 -814326475#2.91 -6456052#5 -6456052#5.10 -6456052#5.36 -6456052#5.120 -6456052#1 -6456052#1.10 -6456052#1.62 -607691082#1 -607691082#0 -6475815#3 -6475815#3.2 -6475815#3.17 -6475815#3.46 -428089348#3 -428089348#3.15 -428089348#3.21 -428089348#3.28 332223491#0 332223491#0.12 6438604#0 6438604#0.3 6438604#0.6 6438604#0.8 6438604#0.10 6438604#0.11 6438604#0.13 6438604#0.44 6438604#0.60 -22927969#14 -22927969#14.8 -22927969#14.47 -22927969#14.89 -22927969#10 -22927969#10.10 -22927969#10.51 -22927969#10.91 -6511397#3 -6511397#3.9 -6511397#3.38 -6511397#3.82 -428227812#1 -428227812#1.9 -428227851#1 -428227851#1.5 -13726934#1 -13726934#1.5 -428227808 -428227847#1 -428227847#1.17 -749622503#15 -749622503#15.9 -749622503#15.31 -749622503#15.46 -749622503#15.51 -749622503#15.67 -749622503#15.85 -749622503#8 -749622503#8.7 -749622503#8.63 -749622503#8.83 -749622503#4 -749622503#4.84 -749622503#2 -749622503#2.9 -749622503#2.29 -749622503#2.64 -749622503#2.84 -369877039 -369877039.36 -369877039.55 -428088903#1 -428088903#1.15 428231018#0 428231018#0.12 428231018#0.30 465971497#0 465971497#0.10 465971497#0.34 465971498#0 465971498#0.9 465971498#0.59 465971498#0.83 465971498#0.86 465971498#0.88 465971498#0.90 465971498#0.91 -428088887#1 -428088887#1.12 -428088892 -428088886#1 -428088886#1.24 -428088886#1.35 -428088886#1.45 6463530#0 6463530#0.2 6463530#0.8 6463530#0.13 6463530#0.54 6463530#0.95 -6456044#5 -6456044#5.7 -6456044#5.86 6467490#0 6467490#0.7 6467490#0.49 6467490#0.78 -401497115 -401497115.113 -401497115.170 -401497115.214 -428233435 -460425668 -460425668.5 425646007#0 425646007#0.10 425646007#0.17 425646007#0.20 425646007#0.22 425646007#0.27 -724644768 -724644768.35 6402586#0 6402586#0.1 6402586#0.4 6402586#0.6 6402586#0.12 6402586#0.35 6402586#0.59 6402586#4 6402586#4.72 6402586#4.75 6402586#4.77 6402586#4.80 208021560#0 208021560#0.2 208021560#0.5 208021560#0.8 208021560#0.11 208021560#0.30 208021560#0.39 208021560#0.44 208021560#0.106 208021560#0.125 208021560#0.133 208021560#0.136 347092914#0 347092914#0.10 347092914#0.14 347092914#0.24 347092914#0.54 347092914#0.75 347092914#0.87 332223488 332223488.25 332223488.48 332223488.65 332223488.68 332223488.88 347092907#0 347092907#0.3 347092907#0.13 347092907#0.19 347092907#0.26 347092907#0.31 347092907#0.38 347092907#0.40 347092907#0.45 347092907#0.51 332223494#0 332223494#0.18 332223494#0.35 332223494#0.144 332223494#0.171 22760519#0 22760519#0.7 22760519#0.27 22760519#3 22760519#3.9 22760519#3.21 22760519#3.33 22760519#3.91 965874292#0 965874292#0.8 965874292#0.88 -22917664#2 -22917664#2.11 -22917664#2.76 881403607#0 881403607#0.25 881403607#0.42 881403608#3 881403608#3.2 881403608#3.5 881403608#3.8 881403608#3.11 976099002#0 976099002#0.34 976099002#0.40 976099002#0.64 965874292#7 965874292#7.8 965874292#7.41 965874292#10 965874292#10.35 965874292#12 965874292#12.8 965874292#12.69 158123767#0 158123767#0.10 158123767#0.11 158123767#0.50 158123767#0.74 158123767#0.86 158123767#0.115 158123767#0.122 158123767#0.134 158123767#0.139 158123767#0.166 795669781 795669781.52 795669781.56 460421481#1 460421481#1.61 460421481#1.85 -428247194#1 -428247194#1.9 -428247194#1.28 -157167355#3 -157167355#3.5 -157167355#3.43 -157167355#0"/>
</vehicle>
<vehicle id = "veh16" type= "veh_passenger" depart="14420" >
<route edges =" -813722269#3 -813722269#3.7 -813722269#3.48 -813722269#3.84 -813722269#3.86 620762213#0 620762213#0.9 620762213#0.88 57883609#0 57883609#0.6 57883609#0.57 57883609#3 57883609#3.43 57883609#3.52 57883609#3.60 57883609#3.80 179551719 179551719.37 179551719.46 179551719.51 179551719.88 179551719.93 179551719.97 739843348#0 739843348#0.4 739843348#0.9 620762218#0 620762218#0.55 620762218#0.66 620762218#0.68 620762218#0.81 620762218#3 620762218#3.7 -525497324#2 243349944#4 243349944#4.53 243349944#6 243349944#7 243349944#8 801995081#6 801995081#6.192 337739269#3 337739269#3.69 396055523#5 396055523#5.8 396055523#5.42 396055523#7 396055523#7.122 243349944#10 243349944#10.7 243349944#10.84 243349944#13 243349944#13.47 243349944#13.51 243349944#15 243349944#15.48 243349944#17 243349944#17.50 243349944#19 243349944#19.47 243349942#0 243349942#0.100 243349945#13 243349945#13.48 6472289#3 805658294#6 805658294#6.47 805658294#8 -359671039#8 -359671039#8.55 243349945#18 532125609#3 808266757#0 808266757#0.7 808266757#1 808266757#2 808266757#2.40 6409627#0 6409627#0.39 32135618#1 32135618#1.53 6521060#0 6521060#0.43 6521060#2 6521060#2.16 6521060#2.23 6521060#2.28 6521060#2.33 6521060#2.38 6521060#2.49 6521060#2.53 6521060#2.58 6521060#2.64 6521060#2.69 642739853 642739853.63 642739853.66 6516132 6516132.2 6516132.5 6516132.73 6516132.82 6516132.90 6463022#7 6463022#7.24 6463022#7.39 6463022#7.50 -8071849#2 -8071849#2.11 -8071849#2.20 -6506465 -6506465.18 -6506465.32 -6506465.45 -6506465.60 -6506465.82 -6506465.93 -6506465.103 -6506465.112 -6506465.131 -6506465.146 -337698847#3 -337698847#3.12 -337698847#3.24 -337698847#3.38 6430750#0 6430750#2 6430750#2.14 6430750#2.25 -6345302#1 -6345302#1.12 -6345302#1.17 -6343958#3 -6343958#2 -337698847#1 -337698847#0 -337698847#0.12 -337698847#0.115 -337698847#0.124 -337698847#0.141 -337698847#0.296 -337698847#0.326 -6484994#3 -6484994#3.11 -6484994#3.16 -6484994#3.21 -6484994#3.28 -6484994#3.34 -6484994#3.42 -6484994#3.49 -6484994#3.68 -6484994#3.81 -6484994#3.92 -6484994#3.113 -379811772#0 -379811772#0.8 -379811772#0.35 -379811772#0.45 -379811772#0.55 -379811772#0.63 -379811772#0.70 -379811772#0.80 -379811772#0.98 -379811772#0.110 -6501432#1 -6501432#1.10 -6501432#1.21 -6501432#1.48 -6501432#1.70 -6383496 -6383496.12 -6383496.21 -6383496.31 -6383496.40 -6383496.44 -6383496.49 -336908259#3 -336908259#3.6 -336908259#3.12 -336908259#3.16 -336908259#3.20 -336908259#3.44 -336908259#3.49 -336908259#3.63 -336908259#3.77 -336908259#3.86 -336908259#3.96 -336908259#3.104 -392882055 6508895 6508895.12 6508895.32 6508895.55 6508895.67 6508895.80 336908257#2 336908257#2.21 336908257#2.36 336908257#2.44 336908257#2.50 336908257#2.59 336908257#2.67 336908257#2.75 336908257#2.87 336908257#2.91 336908257#2.96 336908257#2.111 336908257#2.131 336908257#2.134 336908257#2.139 336908257#2.145 336908257#2.152 6466953#0 6466953#0.40 6468802#1 6468802#1.61 6468802#2 6468802#2.5 6468802#2.11 6468802#2.21 6468802#3 6468802#3.17 6468802#3.25 6468802#3.32 6468802#3.72 6468802#3.76 6468802#3.80 6468802#3.83 6468802#3.156 6468802#3.211 6468802#5 6468802#5.103 6468802#5.110 6468802#5.118 6468802#5.125 -808266757#6 -336908257#9 -336908257#8 -336908257#7 -6447445#25 -6447445#25.7 -6447445#25.41 6409640#11 -243349944#31 -243349944#31.42 243349941#11 -243349945#21 -263665040#2 -263665040#2.22 -263665040#1 -263665040#1.27 -263665040#1.83 -263665040#1.86 -6447445#17 352434874#1 -243349944#27 -532125609#1 -532125609#0 -438895608#1 359671039#4 359671039#4.117 -6447445#14 -6447445#13 -6447445#13.40 -6447445#11 -22760521#2 -22760521#2.81 -22760521#2.121 428246847#0 428246847#0.8 428246847#0.22 6386110#0 6386110#0.16 6386110#0.25 6386110#0.55 -243349338#6 -243349338#6.14"/>
</vehicle>
<vehicle id = "veh17" type= "veh_passenger" depart="14420" >
<route edges =" -816616074#1 -816616074#1.10 -816616074#1.14 -816616074#1.119 428341734#4 428341734#4.8 428246439#0 428246439#0.14 428246438#0 428246438#0.8 428246440#0 428246440#0.62 800744529#0 800744529#0.7 800744529#0.52 800744529#0.89 -349901821 349901822#0 349901822#0.9 96029553#0 96029553#0.9 96029553#0.15 96029553#0.59 -893866066#2 -893866066#2.7 -893866066#2.122 32135548#0 32135548#0.6 32135548#0.48 32135548#0.53 32135548#0.64 32135548#0.89 32135548#0.90 32135548#5 32135548#5.7 32135548#5.49 32135548#5.88 -6440371#11 -6440371#11.12 -6440371#11.144 293775902#8 293775902#8.6 293775902#8.49 293775902#8.91 6512920#8 6512920#8.4 6512920#8.74 6512920#8.89 6512920#8.101 6512920#8.139 525497323#0 525497323#0.50 525497323#2 525497323#2.81 -481291488#2 -481291488#1 6464126#0 6464126#0.46 6464126#0.49 6464126#3 6464126#3.49 6464126#5 460419028#4 243339793#5 243339793#6 243339793#6.50 243339793#6.74 243339793#9 243339793#9.48 -185485132#2 -185485132#2.8 481291012#2 481291012#2.49 -6494970#7 -6494970#6 -6494970#6.6 -185485127#1 -185485127#0 -6467507#14 -6467507#14.73 -6360239#9 -6360239#9.84 -6360239#7 -6360239#7.6 -6360239#7.47 -6360239#7.86 169917351#16 169917351#16.9 169917351#16.77 169917351#19 169917351#19.6 169917351#19.71 169917351#22 169917351#22.7 169917351#22.72 169917351#25 169917351#25.7 169917351#25.72 336908264#3 428247197#0 428247197#0.12 -486632638#1 -486632638#1.9 -486632638#1.22 -428247193#3 -428247193#3.24 6415147#5 -6489809#1 -6489809#1.47 256996977#4 256996977#4.22 256996977#4.24 256996977#4.38 6351349#0 6351349#0.4 6351349#0.39 6415147#7 -6354836#0 -6354836#0.81 256996977#8 6396314 6396314.4 6396312#0 6396312#1 -6463541#0 6501822#4 185485117#2 6396312#3 6396312#3.157 259277920#0 259277920#0.29 259277920#0.47 259277920#1 6506505#4 6506505#5 6506505#6 6506505#6.83 -243349338#12 -243349338#12.2 -6449970#11 -6464130#3 -6464130#3.41 -6464130#1 -6464130#1.43 -6501822#11 -6501822#10 -6501822#9 -6501822#9.25 -795671506#1 -795671506#1.44 -243339793#16 -243339793#16.49 -6386110#4 -6386110#4.86 -6464126#14 -6464126#14.50 6494975#2 243349338#5"/>
</vehicle>
<vehicle id = "veh18" type= "veh_passenger" depart="14420" >
<route edges =" 817434294 817434294.10 817434294.36 817434294.44 817434294.63 817434294.119 6343949#0 6343949#0.7 6343949#0.86 813722270#0 813722270#0.7 813722270#0.42 813722270#0.74 813722270#0.75 813722270#0.121 813722270#5 813722270#5.7 813722270#5.118 6411908#0 337668916#6 337668916#6.37 337668916#6.48 -160552467#0 -620762212#5 -620762212#5.7 -620762212#3 -620762212#2 -620762212#2.76 -620762212#2.120 -800744530#5 -800744530#5.9 -800744530#5.19 -800744530#5.73 -800744530#5.84 -800744530#5.118 -800744528#1 -800744528#1.8 -800744528#1.16 -800744528#1.37 -800744528#1.72 -337673339 -337673337 -337673338#1 -337673338#1.9 -395714916#1 -395714916#1.12 -568043367 -568043367.41 -568043367.79 -293775903#2 -293775903#2.10 -293775903#2.37 -293775903#2.89 -293775903#2.118 893866060#0 893866060#0.10 893866060#0.69 893866060#0.91 -243338979#20 -243338979#20.7 -243338979#20.121 353690157#0 353690157#0.5 353690157#0.19 353690157#0.47 353690157#0.72 353690157#0.87 -353690147#3 -353690147#3.7 -353690147#3.110 -353690147#3.122 353690152#0 353690152#0.9 353690152#0.90 -353690149#3 -353690149#3.9 -353690149#3.73 -353690149#3.196 353690160#0 353690160#0.6 353690160#0.88 353690160#3 353690160#3.6 353690160#3.90 179552384#0 179552384#0.7 179552384#0.28 179552384#0.44 179552384#0.49 179552384#0.89 465971499#0 465971499#0.6 263669069#0 263669069#1 263669069#1.41 263669069#1.48 263669069#1.70 -6515975#8 -6515975#7 -6467507#5 -6467507#5.50 -6447971#5 6507809#4 -6515975#5 -6515975#5.48 169917351#7 169917351#7.49 -6380913#3 -6380913#3.7 -6380913#3.66 -6380913#3.103 256996975#0 256996975#0.50 256996975#0.62 256996975#0.65 256996975#0.91 256996976#0 256996976#0.11 256996976#0.20 256996976#0.46 256996976#0.79 6487445#0 6487445#0.8 6415147#0 6415147#0.61 6449462#3 6449462#3.7 6449462#3.50 6449462#3.60 6449462#3.72 6449462#3.87 795669782#0 795669782#0.54 -6414318#0 -6414318#0.76 -6414318#0.81 460418987#0 460418987#0.4 460418987#0.8 460418987#1 460418987#2 -6371704#2 -6371704#2.42 -460418992#2 -460418992#2.50 -460418992#2.92 460418994#0 460418994#0.9 460418994#0.44 460418994#0.71 22917667#0 22917667#0.7 22917667#0.103 -22917670#6 -22917670#6.8 -22917670#6.44 -22917670#6.72 -337742188#8 -337742188#8.6 -337742188#8.83 -337742188#8.106 -337742188#8.123 -337742188#8.140 -337742188#8.159 22917673#2 22917673#2.9 22917673#2.36 22917673#2.81 22917673#5 22917673#5.15 22917673#5.76 -795846818#7 -795846818#7.6 -795846818#7.174 22917670#10 22917670#10.5 22917670#10.34 481291010#3 481291010#3.6 481291010#3.100 369455641#1 369455641#1.28 369455641#1.78 512126021#0 512126021#0.7 512126021#0.31 512126021#0.66 157167355#0"/>
</vehicle>
<vehicle id = "veh19" type= "veh_passenger" depart="14420" >
<route edges =" -814326475#2 -814326475#2.9 -814326475#2.24 -814326475#2.41 -814326475#2.70 -814326475#2.91 -6456052#5 -6456052#5.10 -6456052#5.36 -6456052#5.120 -6456052#1 -6456052#1.10 -6456052#1.62 -607691082#1 6501701#2 6501701#2.50 6501701#2.60 -6475815#4 -6475815#3 -6475815#3.2 -6475815#3.17 -6475815#3.46 -428089348#3 -428089348#3.15 -428089348#3.21 -428089348#3.28 -428341218#2 -428341218#2.3 -428341218#2.9 -65588069#1 -65588069#1.13 -428089351#1 -428089351#1.16 293753570#3 293753570#3.10 293753570#3.31 293753570#3.45 293753570#3.54 293753570#3.85 293753570#6 293753570#6.10 293753570#6.38 293753570#6.84 293753570#6.86 -368560864#2 -368560864#2.7 -368560864#2.11 -368560864#2.84 -368560864#2.86 -368560864#2.88 -6462029#17 -6462029#17.2 -6462029#17.5 -6462029#17.7 -6462029#17.45 -6462029#17.88 -6511397#10 -6511397#10.7 -6511397#10.83 -6511397#7 -6511397#7.8 -6511397#7.39 -6511397#7.86 -22927969#6 -22927969#6.8 -22927969#6.48 -22927969#6.90 -749622503#18 -749622503#18.7 -749622503#18.55 -749622503#18.81 -428227803#1 -428227803#1.9 -428227860 -428227860.14 -428227828 -428227842 -428227822#1 -428227822#1.17 -428227833#1 -428227833#1.13 -428227838 -428227854#1 -428227854#1.5 -428227818 -428227865#1 -428227865#1.18 338073583#14 338073583#14.11 338073583#14.23 338073583#14.40 338073583#14.60 338073583#14.86 -80574890#3 -80574890#3.8 -80574890#3.48 -80574890#3.78 -80574890#3.88 -621283347#4 -621283347#4.8 -621283347#4.61 -621283347#4.75 -621283347#4.82 -428227877#1 -428227877#1.10 -428227882#1 -428227882#1.23 -428227887#1 -428227887#1.18 -8111067#14 -8111067#14.9 -8111067#14.17 -8111067#14.35 -8111067#14.57 -8111067#14.84 706262355#0 706262355#0.47 706262355#0.82 706262355#0.89 -169511255#12 -169511255#12.10 -169511255#12.35 -169511255#12.49 -169511255#12.84 -6394322#7 -6394322#7.9 -6394322#7.12 -6394322#7.45 -6394322#7.94 -8111067#5 -8111067#5.7 -8111067#5.83 -8111067#2 -8111067#2.7 -8111067#2.83 51817330#3 51817330#3.5 51817330#3.8 51817330#3.26 51817330#3.42 51817330#3.89 -460419023#2 -460419023#2.9 -460419023#2.70 -460419023#2.81 -484438422#1 -484438422#1.9 -484438422#1.20 -484438422#1.48 -484438422#1.49 -484438422#1.89 6502980#8 6502980#8.9 6502980#8.36 6502980#8.43 6502980#8.55 6502980#8.56 6502980#8.71 6502980#8.82 338073583#0 338073583#0.9 338073583#0.24 338073583#0.78 338073583#0.88 338073583#4 338073583#4.8 338073583#4.15 338073583#4.79 338073583#4.84 338073583#7 338073583#7.8 338073583#7.14 338073583#7.85 263672156#3 263672156#3.7 263672156#3.57 263672156#3.86 369877031#0 369877031#0.10 369877031#0.31 369877031#0.46 369877031#0.88 -749622503#8 -749622503#8.7 -749622503#8.63 -749622503#8.83 -749622503#4 -749622503#4.84 369877024#3 369877024#3.6 369877024#3.87 369877024#3.91 369877024#3.98 369877024#3.100 369877024#3.103 369877024#3.104 -428088900#1 -428088900#1.10 -428088894#1 -428088894#1.25 -428088883#1 -428088883#1.15 -428088897 -428088888 -737711647 -332223490#1 -332223490#1.19 6514305#0 6514305#0.3 6514305#0.4 6514305#0.9 6514305#0.14 6514305#0.34 6514305#0.54 353690159#1 353690159#1.50 353690159#1.92 353690159#4 353690159#4.6 353690159#4.49 353690159#4.69 353690159#4.76 353690159#4.85 353690159#9 353690159#9.9 353690159#9.28 353690159#9.40 353690159#9.53 353690159#9.88 -243338979#3 -243338979#3.10 -243338979#3.38 -243338979#3.51 -243338979#3.65 -6376376#3 -6376376#3.1 -6376376#3.10 -6376376#3.64 -6376376#3.89 -6435230#8 -6435230#7 -6435230#7.4 -6435230#7.24 -6435230#7.64 -6435230#5 -6435230#5.17 -893868549#6 -893868549#6.12 -893868549#6.14 -893868549#6.50 -893868549#6.94 -893868549#2 -893868549#2.10 -893868549#2.49 -893868549#2.89 -893868549#2.91 -893868549#2.93 -893868549#2.94 6456044#0 6456044#0.1 6456044#0.2 6456044#0.3 6456044#0.4 6456044#0.6 6456044#0.84 6467490#0 6467490#0.7 6467490#0.49 6467490#0.78 -401497115 -401497115.113 -401497115.170 -401497115.214 -537677478#2 -537677478#2.10 -537677478#2.11 -537677478#2.28 -537677478#2.36 -6456046#3 -6456046#3.6 -6456046#3.36 -6456046#3.42 -6456046#3.49 -6456046#3.56 -6456046#3.62 -6456046#3.66 -6456046#3.71 -6456046#3.76 -6456046#3.92 -6456046#3.102 -6456046#3.109 -6456046#3.112 6402586#0 6402586#0.1 6402586#0.4 6402586#0.6 6402586#0.12 6402586#0.35 6402586#0.59 6415152 6415152.4 6415152.15 6415152.33 6415152.51 6415152.63 6415152.76 6415152.94 6415152.108 6415152.133 6415152.155 858621141#0 858621141#0.35 858621141#0.40 622519661 622519661.8 739874553#0 739874553#0.66 739874553#0.80 739874553#0.88 333370569#0 333370569#0.6 333370569#0.13 333370569#0.37 333370569#0.43 333370569#0.66 333370569#0.94 333370569#0.155 333370569#0.178 333370566#0 333370566#0.32 6405076#0 6405076#0.10 6405076#0.18 6405076#0.21 6405076#0.58 6405076#0.79 6405076#0.81 6405076#3 6405076#3.4 6405076#3.8 6405076#3.14 6405076#3.20 6405076#3.50 6405076#3.68 6405076#3.84 22917663#0 22917663#0.5 22917663#0.8 22917663#0.11 22917663#0.26 22917663#0.59 22917663#0.67 22917663#0.85 -6458014#2 -6458014#2.7 -6458014#2.83 -256996971#4 -256996971#4.8 -256996971#4.56 -256996971#4.61 -256996971#4.70 -256996971#4.86 6476327#0 6476327#0.4 6476327#0.9 6476327#0.63 6476327#0.102 893868551#0 893868551#0.5 893868551#0.89 893868550#0 893868550#0.5 893868550#0.84 893868548#0 893868548#0.6 893868548#0.84 876005346#0 876005346#0.6 876005346#0.88 876005346#3 -22917110#5 -22917110#5.7 -22917110#5.84 901474739#3 901474739#3.6 901474739#3.41 901474739#3.71 901474739#7 901474739#7.8 901474739#7.82 901474742#0 901474742#0.6 901474742#0.45 901474742#0.83 6467507#0 6467507#0.7 6467507#0.88 -6481166#5 -6481166#4 -6481166#3 -6481166#3.7 -6481166#3.37 -6481166#3.105 -256996974#12 -256996974#12.29 -256996974#12.62 -256996974#12.88 -256996974#10 -256996974#10.11 -256996974#10.59 -256996974#10.79 -256996974#10.90 -256996974#5 -256996974#5.8 -256996974#5.38 -256996974#5.66 -256996974#5.89 6506833#0 6506833#0.9 6506833#0.37 6506833#0.54 6506833#0.84 6506833#5 6506833#5.9 6506833#5.46 6506833#5.50 6506833#5.72 6506833#5.85 347092915#6 347092915#6.6 347092915#6.44 347092915#6.87 347092915#10 347092915#10.9 347092915#10.68 347092915#10.90 243338978#7 243338978#7.8 243338978#7.38 243338978#7.45 243338978#7.74 965874293#0 965874293#0.9 965874293#0.40 -49394452#7 -49394452#7.8 -49394452#7.188 6506833#18 6506833#18.45 -749863323#3 -749863323#3.10 -749863323#3.85 -749863323#3.126 792010743#0 792010743#0.26 792010743#0.59 263712957#10 263712957#10.9 263712957#10.78 6506833#24 6506833#24.9 6506833#24.30 6506833#24.48 6506833#24.87 6371699#2 6371699#2.33 6371699#2.42 6371699#2.187 844067889#4 844067889#4.8 844067889#4.67 844067889#4.77 844067889#4.80 263721997#0 263721997#0.6 263721997#0.7 263721997#0.8 263721997#0.44 263721997#0.76 263721997#0.88 6405732#0 6405732#0.8 6405732#0.12 6405732#0.162 6405732#0.169 22917669#5 22917669#5.7 22917669#5.20 22917669#5.22 22917669#5.27 22917669#5.46 22917669#5.62 22917669#5.86 6491356#4 6491356#4.5 6491356#4.177 6491356#4.178 6496658#0 6496658#0.30 6496658#0.31 -260318962#3 -260318962#3.5 -260318962#1 -260318962#1.73 22917669#17 22917669#17.9 22917669#17.88 22917669#17.94 -6445486#3 -6445486#3.1 -6445486#3.4 -6445486#3.6 -6445486#3.65 -6445486#3.71 -6452772#1 -6452772#1.4 -6452772#1.9 -6452772#1.91 -6388742#21 -6388742#21.6 -6388742#21.71 -6388742#18 -6388742#18.5 -6388742#18.14 -6388742#18.22 -6388742#18.33 -6388742#18.42 -6388742#18.52 -6388742#18.64 -6388742#18.73 -6388742#15 -6388742#15.8 -6388742#15.46 -6388742#15.84 263712958#0 263712958#0.8 263712958#0.45 263712958#0.101 263712958#0.114 263712958#0.117 263712958#0.119 6445479#0 6445479#0.4 6445479#0.8 6445479#0.186 965874292#10 965874292#10.35 965874292#12 965874292#12.8 965874292#12.69 158123767#0 158123767#0.10 158123767#0.11 158123767#0.50 158123767#0.74 158123767#0.86 158123767#0.115 158123767#0.122 158123767#0.134 158123767#0.139 158123767#0.166 795669781 795669781.52 795669781.56 460421481#1 460421481#1.61 460421481#1.85 -428247194#1 -428247194#1.9 -428247194#1.28 -157167355#3 -157167355#3.5 -157167355#3.43 -157167355#0"/>
</vehicle>
<vehicle id = "veh20" type= "veh_passenger" depart="18025" >
<route edges =" -813722269#3 -813722269#3.7 -813722269#3.48 -813722269#3.84 -813722269#3.86 620762213#0 620762213#0.9 620762213#0.88 57883609#0 57883609#0.6 57883609#0.57 65588100#0 65588100#0.63 6343949#7 -8071898#2 6430729#11 6430729#11.51 65588093#3 6505136#0 6505136#0.18 6505136#0.27 6505136#0.73 6505136#0.87 6505136#0.118 6505136#5 6505136#5.72 6505136#7 6505136#7.55 6505136#7.66 6505136#7.74 6505136#7.92 6505136#7.104 -8111709#1 -8111709#1.49 6457203#5 6457203#5.28 6457203#5.42 6457203#5.68 6457203#5.82 6457203#5.104 8111708#0 8111708#0.2 8111708#0.5 8111708#0.7 8111708#0.9 8111708#0.12 8111708#0.14 8111708#0.45 8111708#0.50 8111708#3 8111708#3.48 8111708#3.86 -603522174#3 -603522174#3.8 -603522174#1 6368504#7 6368504#7.50 -6513783#8 -6513783#7 -6513783#6 -6513783#5 -6513783#4 -6513783#4.21 -6513783#4.23 -6513783#4.43 -6513783#4.80 6463017#5 -6381494#1 -6381494#0 -620762224#1 -620762224#0 343521145#0 343521145#0.47 343521145#0.69 337739267#0 337818462 337818462.3 337818462.6 337739271#1 337739271#1.6 337739269#0 337739269#1 337739269#1.30 481291013#0 481291013#0.16 481291013#0.30 481291013#0.70 481291013#0.75 481291013#0.79 481291013#0.109 481291013#0.113 -481291015#1 -481291015#1.3 -481291015#1.42 6444677 8071925#0 8071925#0.9 8071925#0.55 8071925#2 8071925#2.36 8071925#2.74 465799093#0 465799093#0.8 465799093#0.46 465799093#0.91 337818330 428315592#0 428315592#0.12 428315592#0.53 428315592#0.95 6448612#4 6448612#4.11 -6384373#8 -6384373#8.6 -6384373#8.46 -6384373#8.57 -6384373#4 -6384373#4.41 -6384373#4.51 -6384373#1 6383185#5 -476409329 -37657905#8 -37657905#8.49 -37657905#6 -37657905#6.50 -37657905#6.87 6381494#9 6381494#9.36 6381494#9.62 -170683231#18 -170683231#18.37 -170683231#18.49 336904472#5 336904472#5.77 638348589 -263666867#2 -263666867#2.43 -263666867#2.72 6381494#15 -603522176#3 -603522176#3.50 -603522176#1 -603522176#1.51 -37657904 504279347 504279347.177 6363153#3 6363153#3.40 6363153#3.50 6363153#3.56 392673856 392673856.85 6434058#0 6434058#0.15 6434058#0.33 6434058#0.56 6434058#0.73 6434058#0.96 6434058#0.116 6434058#0.128 6434058#1 481291021#0 481291021#1 -6383185#18 -6383185#18.50 -6383185#18.92 -6383185#15 -6383185#15.9 -6383185#13 -6383185#12 -476409333#1 -476409333#1.43 642732922 476409331 791722143#0 791722143#0.9 -170683231#11 -170683231#11.43 6383185#7 476409332#2 476409332#2.43 476409332#4 65588097#7 65588097#7.42 6345330#1 6345330#2 6345330#3 6345330#3.60 6345330#3.84 -6349125#2 -6349125#2.60 -6349125#2.61 -6349125#2.68 -6349125#2.76 -6349125#2.79 -476409332#11 -476409332#11.8 -476409332#10 -476409332#10.10 -476409332#8 -476409332#7 -6495798#2 -6495798#1 -6495798#1.232 -6495798#1.266 428315592#5 428315591#0 428315591#1 428315591#2 428315591#2.6 428315591#2.15 428315591#2.25 428315591#2.59 428315591#2.76 912599280 337818332#0 337818332#0.7 337818332#0.70 -19000995#2 -19000995#2.7 -19000995#2.29 535540392#0 535540392#0.117 -40416127#2 -40416127#2.7 -40416127#2.26 -279467136#3 -279467136#3.77 -279467136#3.101 -279467136#1 6463035#8 6463035#8.49 6463035#10 6463035#10.48 6353177#4 -170683665#8 6353867#0 40416130#2 40416130#3 40416130#3.42 40416130#3.45 40416130#6 -6369950#3 -170683665#13 -6521828#4 6463035#14 -6369950#0 -336908262#6 -336908262#5 -336908262#5.80 -160624558#4 -160624558#4.98 -160624558#2 243349945#17 -359671039#6 -243349944#25 -160624558#0 -160624558#0.117 -160624558#0.124 -6447445#13 -6447445#13.40 6472289#1 -243349944#22 -243349944#22.50 243349942#0 243349942#0.100 243349942#1 243349942#1.25 243349942#2 -805680044#10 -6494975#10 -6494975#10.123 -6494975#10.131 -6494975#9 -6494975#9.13 -6494975#9.24 -243349945#10 -243349945#10.46 185485132#11 185485132#11.115 185485132#12 185485132#12.17 -805680044#7 -805680044#7.48 -805680044#7.91 -22917113#10 -22917113#10.7 -22917113#10.129 -22917113#10.132 -22917113#7 -22917113#7.10 -22917113#7.19 -22917113#6 243349944#15 243349944#15.48 243349944#17 243349944#17.50 -6494975#7 -6447445#8 -6447445#8.50 -185485132#8 -185485132#8.81 256994205#2 256994205#2.24 256994205#2.72 256994205#3 428246847#0 428246847#0.8 428246847#0.22 6386110#0 6386110#0.16 6386110#0.25 6386110#0.55 -243349338#6 -243349338#6.14"/>
</vehicle>
<vehicle id = "veh21" type= "veh_passenger" depart="18025" >
<route edges =" -816616074#1 -816616074#1.10 -816616074#1.14 -816616074#1.119 428341734#4 428341734#4.8 428246439#0 428246439#0.14 -569505978#1 -569505978#1.10 -569505979 -569505979.32 -569505979.79 337673338#0 337673338#0.14 337673337 337673339 826314456#0 826314456#0.9 826314456#0.50 826314456#0.96 826314456#0.103 349901821 826314455#0 826314455#0.11 826314455#0.39 826314455#0.53 826314455#0.57 826314455#0.65 65588100#0 65588100#0.63 6343949#7 6343949#8 6343949#8.52 -65588093#1 -65588093#1.103 -65588093#1.123 -65588093#1.126 -65588093#1.130 739843348#0 739843348#0.4 739843348#0.9 -460423532#1 -460423532#1.17 -22917111#30 -22917111#30.9 -22917111#30.50 -22917111#30.96 -22917111#26 -22917111#26.7 -22917111#26.41 -22917111#26.121 -22917111#22 -22917111#22.9 -22917111#22.144 -22917111#19 -22917111#19.8 -22917111#19.123 -22917111#19.125 -22917111#19.126 6464138#4 6464138#4.6 6464138#4.51 6464138#4.88 6464138#8 6464138#8.7 6464138#8.49 6464138#8.88 6464138#12 6464138#12.51 6464138#14 -481291488#1 6464126#0 6464126#0.46 6464126#0.49 460419011#2 460419011#3 243349944#8 -801995081#5 -801995081#5.197 -801995081#5.209 256994206#0 256994206#0.8 256994206#0.43 256994206#0.60 460419028#0 460419028#0.11 460419028#0.49 460419028#0.79 460419028#0.95 243349338#0 243349338#0.18 6360256#4 256994205#0 256994205#0.67 256994205#1 -185485132#6 -185485132#6.52 -185485132#4 -6464126#10 -6464126#10.50 -22917113#1 -22917113#1.55 -22917112 481291012#0 481291012#0.24 481291012#0.32 -185485132#1 -185485132#1.196 926425191#0 926425191#0.5 6494970#7 6494975#0 6494975#0.105 6494975#1 6494975#1.9 6494975#2 243349338#5"/>
</vehicle>
<vehicle id = "veh22" type= "veh_passenger" depart="18025" >
<route edges =" 817434294 817434294.10 817434294.36 817434294.44 817434294.63 817434294.119 816616072#4 816616072#4.7 816616072#4.62 816616072#4.121 6430729#0 6430729#0.7 6430729#0.86 6430729#3 6430729#3.9 6430729#3.48 6430729#6 6430729#6.47 6430729#6.48 65588100#5 65588100#5.122 -171739207#3 -171739207#3.48 -171739207#1 -171739207#1.50 6411908#0 6411908#1 6411908#1.103 6411908#1.111 6411908#2 6411908#2.39 158882505#4 158882505#4.31 158882505#6 158882505#7 6469837#2 -158882517#5 6403883#3 158882511#8 158882511#9 158882511#9.51 6457203#13 6457203#13.62 6457203#14 6457203#14.21 6457203#15 6457203#15.68 975126260#0 975126260#0.49 6505136#17 6505136#17.194 6505136#17.197 6339665#0 6339665#0.2 6339665#0.6 6339665#0.46 603522176#0 603522176#0.48 6513783#11 6513783#11.206 945555824#0 945555824#0.41 -6381494#16 -6381494#15 -6381494#14 -6381494#14.47 -6381494#14.172 -6368504#11 -6368504#11.50 -6368504#11.52 6513783#9 -603522173#1 -603522173#1.50 603522174#0 -6368504#6 -6368504#6.48 -6505136#15 8111707#2 8111707#2.47 603522174#2 603522174#2.123 -8111708#5 -8111708#5.7 -8111708#5.45 -6505136#13 -6505136#13.115 8111709#2 8111709#2.49 -6464042#7 -6464042#7.121 -6464042#7.127 -6464042#7.144 -6464042#7.161 -6384359#5 -6384359#5.49 -6384359#5.68 -6384359#5.86 -6505136#6 -6505136#6.18 6463017#0 6463017#0.48 -6464042#1 -6464042#1.52 -6440348#14 -6430729#14 -6430729#14.49 -65588093#2 -6343949#9 -6343949#9.49 -6343949#7 -65588100#1 -65588100#1.65 -826314455#3 -826314455#3.64 -826314455#3.71 -826314455#3.76 -826314455#3.90 -826314455#3.118 -349901821 -826314456#4 -826314456#4.12 -826314456#4.19 -826314456#4.65 -826314456#4.106 -337673339 -337673337 185882764 185882764.13 185882764.14 185882765 185882765.16 185882765.26 185882765.30 185882765.31 395933841 164418944#0 164418944#0.13 164418944#0.18 164418944#0.32 164418944#0.39 164418944#4 164418944#4.7 164418944#4.8 164418944#4.29 164418944#4.51 164418944#4.95 -353690150#2 -353690150#2.8 -353690150#2.144 -893866064#2 -893866064#2.7 -893866064#2.122 -893866059#2 -893866059#2.7 -893866059#2.120 -893866059#2.121 353690154#0 353690154#0.7 353690154#0.49 353690154#0.90 -22917111#13 -22917111#13.8 -22917111#13.10 -22917111#13.79 -22917111#13.80 -22917111#13.98 -22917111#13.123 460419029#5 460419029#5.8 460419029#5.52 460419029#5.91 6440371#0 6440371#0.7 6440371#0.8 6440371#0.119 6440371#0.121 353690154#8 353690154#8.7 353690154#8.42 353690154#8.50 353690154#8.92 353690154#12 353690154#12.6 353690154#12.32 353690154#15 353690154#15.50 -6447971#10 -6447971#10.11 486874837#2 486874837#2.47 -460419014 -460419014.67 -460419007#0 -460419007#0.17 -460419007#0.46 460419008#0 460419008#0.50 6380913#12 6425675 460419024#5 460419024#5.50 460419024#5.63 460419024#5.69 6516509#0 6516509#0.7 6516509#0.30 6516509#0.46 6516509#0.66 6516509#0.90 6516509#0.105 6516509#0.109 6516509#4 6516509#4.6 6516509#4.33 6516509#4.47 6516509#4.52 6516509#4.66 6516509#4.84 -6467507#9 -6467507#9.9 -6380913#5 6507809#7 6507809#7.46 6507809#7.87 6507809#10 6507809#10.8 6507809#10.91 -6360239#7 -6360239#7.6 -6360239#7.47 -6360239#7.86 169917351#16 169917351#16.9 169917351#16.77 -6452520#2 -6452520#2.4 -6452520#2.101 6449462#0 6449462#0.9 6449462#0.46 6415147#2 6497081#2 6497081#2.38 6497081#2.47 6497081#2.53 6497081#2.60 6497081#2.67 6497081#2.70 6497081#2.74 6497081#2.81 6497081#2.120 6497081#6 6497081#6.44 6497081#8 6371720#3 157167355#0"/>
</vehicle>
<vehicle id = "veh23" type= "veh_passenger" depart="18025" >
<route edges =" -814326475#2 -814326475#2.9 -814326475#2.24 -814326475#2.41 -814326475#2.70 -814326475#2.91 -6456052#5 -6456052#5.10 -6456052#5.36 -6456052#5.120 -6456052#1 -6456052#1.10 -6456052#1.62 -607691082#1 -607691082#0 -6475815#3 -6475815#3.2 -6475815#3.17 -6475815#3.46 -428089348#3 -428089348#3.15 -428089348#3.21 -428089348#3.28 -428341218#2 -428341218#2.3 -428341218#2.9 -65588069#1 -65588069#1.13 -428089351#1 -428089351#1.16 -293753570#2 -293753570#2.9 -293753570#2.83 293753571#0 293753571#0.5 293753571#0.20 293753571#0.24 -353690151#2 -353690151#2.9 -353690151#2.22 -353690151#2.24 -353690151#2.39 -353690151#2.72 -353690151#2.92 -433500388#1 -433500388#1.11 -433500388#1.46 -433500388#1.73 -433500388#1.113 -433500388#1.115 -428088900#1 -428088900#1.10 -428088894#1 -428088894#1.25 -532166310#2 -532166310#2.3 -532166310#2.13 -6522514#4 -6522514#4.7 -6522514#4.36 -6522514#4.61 -6522514#4.66 -6522514#4.67 -6522514#4.73 -332223490#1 -332223490#1.19 -465971498#3 -465971498#3.2 -465971498#3.3 -465971498#3.5 -465971498#3.7 -465971498#3.10 -465971498#3.34 -465971498#3.84 576974321#0 576974321#0.11 576974321#0.20 576974321#0.50 576974321#0.92 -6502980#7 -6502980#7.6 -6502980#7.48 -6502980#7.86 6516984#2 6516984#2.5 6516984#2.47 6516984#2.86 537686684#0 537686684#0.43 537686684#0.53 -332223489#3 -332223489#3.4 -332223489#3.15 -332223489#3.17 -332223489#3.21 -401497115 -401497115.113 -401497115.170 -401497115.214 -428233435 -460425668 -460425668.5 425646007#0 425646007#0.10 425646007#0.17 425646007#0.20 425646007#0.22 425646007#0.27 425646003#0 425646003#0.15 6476922#0 6476922#0.13 6476922#0.24 6476922#0.37 6476922#0.60 6476922#0.67 6413383#0 6413383#0.1 6413383#0.3 6413383#0.6 6413383#0.18 6413383#0.26 6413383#0.47 428233432#0 428233432#0.11 428233432#0.22 -739874554#2 -739874554#2.15 -739874554#2.40 -739874554#2.60 -739874554#2.67 622519661 622519661.8 347092914#0 347092914#0.10 347092914#0.14 347092914#0.24 347092914#0.54 347092914#0.75 347092914#0.87 332223488 332223488.25 332223488.48 332223488.65 332223488.68 332223488.88 347092907#0 347092907#0.3 347092907#0.13 347092907#0.19 347092907#0.26 347092907#0.31 347092907#0.38 347092907#0.40 347092907#0.45 347092907#0.51 332223494#0 332223494#0.18 332223494#0.35 332223494#0.144 332223494#0.171 22760519#0 22760519#0.7 22760519#0.27 22760519#3 22760519#3.9 22760519#3.21 22760519#3.33 22760519#3.91 965874292#0 965874292#0.8 965874292#0.88 965874292#3 965874292#3.1 965874292#3.48 965874292#3.59 965874292#3.86 965874292#7 965874292#7.8 965874292#7.41 965874292#10 965874292#10.35 965874292#12 965874292#12.8 965874292#12.69 158123767#0 158123767#0.10 158123767#0.11 158123767#0.50 158123767#0.74 158123767#0.86 158123767#0.115 158123767#0.122 158123767#0.134 158123767#0.139 158123767#0.166 795669782#0 795669782#0.54 795669782#2 6371720#2 -6497081#8 6414318#3 -157167355#0"/>
</vehicle>
<vehicle id = "veh24" type= "veh_passenger" depart="21630" >
<route edges =" -813722269#3 -813722269#3.7 -813722269#3.48 -813722269#3.84 -813722269#3.86 569505974#0 569505974#0.10 569505974#0.37 816616073#0 816616073#0.78 6343949#3 6343949#3.9 6343949#3.49 6343949#6 65588100#2 65588100#2.20 65588100#2.57 6430729#9 6430729#9.48 8071898#2 8071898#3 620762214 332092195#0 332092195#0.9 332092195#0.74 -22917111#30 -22917111#30.9 -22917111#30.50 -22917111#30.96 8071900#4 8071900#4.7 8071900#4.49 8071900#4.88 6440348#0 6440348#0.6 6440348#0.84 6440348#0.93 6440348#0.107 6440348#0.114 243349944#0 243349944#0.4 243349944#0.20 243349944#0.49 525497324#2 620762218#5 620762218#5.18 620762218#5.80 -66558981#7 -66558981#7.65 -66558981#7.83 -66558981#7.105 -66558981#7.123 243349944#6 243349944#7 460419011#4 -337739269#0 6343960 6343960.10 6343960.16 6343960.20 6343960.24 -337739268 -337739268.13 6386837#0 6386837#1 6386837#2 6384359#12 6384359#12.14 6384359#12.24 6384359#12.93 8071925#0 8071925#0.9 8071925#0.55 6383185#3 6383185#3.8 6383185#5 6383185#6 170683231#10 170683231#10.39 170683231#12 170683231#12.36 170683231#12.50 170683231#12.64 336904472#5 336904472#5.77 638348589 638348588#0 -603522176#5 -603522176#5.43 -603522176#5.84 6381494#16 945555824#2 945555824#2.47 481291019#0 481291019#0.47 481291017#0 481291017#0.46 -6383185#13 603522176#10 603522176#10.44 603522176#10.46 -8071885#0 -8071885#0.116 735164736 735164736.7 735164736.13 735164737 735164737.10 735164737.15 6522860#0 6522860#0.11 6522860#1 6448615#0 6448615#0.41 6448615#2 6448615#2.51 6448615#2.74 6448615#2.76 6448615#2.97 6448615#7 6448615#8 6483146#3 6483146#3.48 159937059#2 159937059#3 159937059#3.69 159937059#3.76 6428558#0 6428558#0.9 6428558#0.56 6428558#0.147 6428558#0.154 6428558#0.157 -170683288#8 -170683288#8.6 -170683288#8.15 -6459736#10 -6459736#10.20 -6459736#10.53 -6459736#10.60 -6495798#8 -6495798#8.42 6522860#11 6522860#11.100 6522860#11.110 6522860#14 6522860#14.12 6522860#14.34 6522860#14.81 6522860#14.110 6522860#14.119 -6523125#6 -6523125#6.31 -6523125#6.52 -6523125#6.66 -6523125#2 -6495798#4 -6495798#3 -6495798#2 170683231#3 -6448612#7 -6448612#7.6 -6448612#5 -6448612#5.30 -6448612#3 -6448612#3.16 -6463035#2 -6463035#2.46 -6463035#2.71 -460421484#1 -460421484#1.13 -6486416#2 -6486416#2.9 -6486416#2.116 -6360256#15 -6360256#15.7 -6360256#15.133 361784407#0 361784407#0.8 361784407#0.38 361784407#0.53 -22917113#7 -22917113#7.10 -22917113#7.19 -22917113#6 -22917113#5 6447445#5 6447445#5.47 6447445#7 6447445#7.46 -6494975#6 -6494975#6.81 256994205#3 428246847#0 428246847#0.8 428246847#0.22 6386110#0 6386110#0.16 6386110#0.25 6386110#0.55 -243349338#6 -243349338#6.14"/>
</vehicle>
<vehicle id = "veh25" type= "veh_passenger" depart="21630" >
<route edges =" -816616074#1 -816616074#1.10 -816616074#1.14 -816616074#1.119 428341734#4 428341734#4.8 428246439#0 428246439#0.14 428246438#0 428246438#0.8 428246440#0 428246440#0.62 -800744528#1 -800744528#1.8 -800744528#1.16 -800744528#1.37 -800744528#1.72 826314456#0 826314456#0.9 826314456#0.50 826314456#0.96 826314456#0.103 -6476313#2 -6476313#2.11 -6476313#2.29 -6476313#2.98 -6476313#2.99 -6476313#2.103 -6476313#2.107 -353690148#9 -353690148#9.7 -353690148#9.10 -353690148#9.12 -353690148#9.13 -353690148#9.38 -353690148#9.143 893866065#7 893866065#7.7 893866065#7.48 893866065#7.90 293775902#0 293775902#0.7 293775902#0.52 293775902#0.90 293775902#4 293775902#4.6 293775902#4.49 293775902#4.88 6440371#9 6440371#9.7 6440371#9.139 32135548#9 32135548#9.7 32135548#9.47 32135548#9.63 32135548#9.78 525497324#0 525497324#1 243349944#4 243349944#4.53 -66558981#2 -66558981#2.131 -66558981#2.234 -6481166#12 -6481166#11 -6481166#11.122 -6481166#11.125 6464138#14 481291488#2 40416132#0 40416132#0.19 -460419011#2 -460419011#1 -460419011#1.97 243339793#2 243339793#2.49 243339793#4 460419028#5 460419028#5.67 460419028#5.79 460419028#5.105 353690153#0 353690153#0.8 353690153#0.25 353690153#0.87 6360256#0 6360256#0.104 6360256#1 6360256#1.7 -6464126#6 -460419028#3 243349338#0 243349338#0.18 6360256#4 256994205#0 256994205#0.67 256994205#1 -185485132#6 -185485132#6.52 243349338#3 243349338#3.49 243349338#5"/>
</vehicle>
<vehicle id = "veh26" type= "veh_passenger" depart="21630" >
<route edges =" 817434294 817434294.10 817434294.36 817434294.44 817434294.63 817434294.119 6343949#0 6343949#0.7 6343949#0.86 -816616073#1 -816616073#1.7 -569505974#1 -569505974#1.6 -569505974#1.33 -569505976#2 -569505976#2.9 -569505976#2.88 -569505976#2.115 -569505976#2.119 -569505978#1 -569505978#1.10 -569505979 -569505979.32 -569505979.79 -395714916#1 -395714916#1.12 -568043367 -568043367.41 -568043367.79 893866065#0 893866065#0.10 893866065#0.66 893866065#0.92 -243338979#25 -243338979#25.8 -243338979#25.64 -243338979#25.77 -243338979#25.120 893866060#4 893866060#4.6 893866060#4.48 893866060#4.89 893866060#8 893866060#8.7 893866060#8.65 893866060#8.89 6464138#0 6464138#0.7 6464138#0.53 6464138#0.92 6464138#4 6464138#4.6 6464138#4.51 6464138#4.88 -6440371#5 -6440371#5.4 -6440371#5.6 -6440371#5.7 -6440371#5.119 -6440371#5.121 353690154#8 353690154#8.7 353690154#8.42 353690154#8.50 353690154#8.92 -6512920#3 -6512920#3.8 -6512920#3.9 -6512920#3.19 -6512920#3.59 -6512920#3.92 -901419468#4 -901419468#4.51 -901419468#4.132 -901419468#4.164 -901419468#4.186 -901419468#4.196 -901419468#4.197 -512168130#2 -512168130#2.10 -512168130#2.12 -512168130#2.65 -512168130#2.197 -901474741#2 -901474741#2.7 -901474741#2.9 -901474741#2.88 -6440364#9 -6440364#9.7 -6440364#9.83 -6440364#6 -6440364#6.6 -6440364#6.86 -6440364#3 -6440364#3.8 -6440364#3.13 -6440364#3.85 -6440364#3.103 6465130#0 6465130#0.8 6465130#0.84 22917663#15 22917663#15.9 22917663#15.45 22917663#15.80 -243338978#3 -243338978#3.21 -243338978#3.34 -243338978#3.83 901474740#0 901474740#0.9 901474740#0.50 901474740#0.58 901474740#0.104 169917351#0 169917351#0.8 169917351#0.53 169917351#0.88 169917351#4 169917351#4.51 6447971#4 6507809#4 6507809#5 6507809#5.51 -6380913#4 169917351#9 169917351#9.48 169917351#9.87 169917351#12 169917351#12.9 169917351#12.42 169917351#12.90 -6360239#3 -6360239#3.6 -6360239#3.69 -6360239#3.102 256996976#3 256996976#3.7 256996976#3.76 460421482#0 460421482#0.8 460421482#0.73 6523501#0 6523501#0.9 6523501#0.105 6523501#3 6523501#3.6 6523501#5 6523501#5.201 926425191#0 926425191#0.5 926425191#2 926425191#3 6391677 8071924#1 8071924#1.18 8071924#1.30 -6472293#5 -6472293#5.39 185485117#1 -6501822#4 -6501822#3 -185485127#9 -185485127#9.41 -185485127#9.47 -6472293#2 -6507813#0 -6391682#1 -6391682#1.146 -256996977#2 -256996977#2.16 -256996977#2.48 -460421482#10 -460421482#10.13 -460421482#10.46 -460421482#10.56 -460421482#10.76 6358721#0 6358721#0.9 6415147#4 -428247193#2 -428247193#2.56 -428247193#2.61 -428247193#2.96 -428247193#2.117 -428247193#2.121 -428247193#2.140 -428247193#2.154 -428247195 -428247195.5 256997441#0 256997441#0.11 256997441#0.18 256997441#0.62 256997441#3 256997441#3.6 256997441#3.53 6351349#5 -185483733 -6414318#4 -6414318#3 6497081#8 6371720#3 157167355#0"/>
</vehicle>
<vehicle id = "veh27" type= "veh_passenger" depart="21630" >
<route edges =" -814326475#2 -814326475#2.9 -814326475#2.24 -814326475#2.41 -814326475#2.70 -814326475#2.91 -723013181#2 -723013181#2.9 -723013181#2.18 -723013181#2.38 -723013181#0 -332601014#3 -332601014#3.31 -332601014#3.36 -332601014#3.42 65588113#0 65588113#0.12 65588113#0.104 65588113#0.135 65588113#0.237 65588113#0.250 65588113#0.253 332601013#0 332601013#0.7 332601013#0.16 332601013#0.35 332601013#0.52 332601013#0.55 332601013#0.63 658284001#0 658284001#0.6 658284001#0.39 658284001#0.53 -658284000#1 -658284000#1.15 -658284000#1.52 95600805#0 95600805#0.117 331930455#0 331930455#0.9 331930455#0.42 331930455#0.49 331930455#0.60 331930455#0.86 428246435#0 428246435#0.10 428246433 428246433.72 428246432#0 428246432#0.13 171739214#8 8071890#0 8071890#0.56 158882505#0 158882505#0.42 6368665#2 158882517#1 158882517#2 6411908#4 6411908#5 6411908#5.89 6411908#5.98 6411908#5.108 -8071379#1 -8071379#1.46 -6346524#3 -6346524#3.8 -6346524#3.13 -6346524#3.18 -6346524#3.26 -6346524#3.31 -6346524#3.36 -6346524#3.41 -6346524#3.51 -158882511#2 -158882511#2.44 -158882511#0 -621283354 -6346308#11 -6346308#11.43 -6346308#11.48 752851600#13 752851600#13.62 -8071894#3 6384935#0 6384935#0.113 -8071895#0 6358515#1 -215404534#2 -6348400#0 621088607#1 -749754758#12 -749754758#12.26 -749754758#10 6346308#4 6346308#4.47 6346308#6 -6358524#11 -6358524#11.47 -6358524#11.63 -6414229#11 -6374789#10 -6374789#10.121 -6464391#8 -6464391#8.3 -6464391#8.64 -6358524#5 -6358524#5.5 -6358524#5.96 -6358524#2 -6358524#2.6 -6358524#2.122 -742713664#1 -742713664#1.7 -742713664#1.9 -742713664#1.19 -6358498#1 -6358498#1.87 -6474762#2 -6474762#2.6 -6474762#2.9 -6474762#2.12 -6474762#1 -6474762#1.50 -393047811 -393047810#1 -393047810#1.14 -393047810#1.66 -393047810#1.75 -6366765#24 -6366765#24.9 -6366765#24.38 -6366765#24.40 -6366765#24.42 -6366765#24.43 -6366765#24.47 -6366765#24.51 -6366765#24.58 -6366765#24.79 -6366765#20 -6366765#20.3 -6366765#20.6 -6366765#20.39 -6366765#18 -6366765#18.28 -6366765#18.47 -6366765#18.74 -6366765#18.98 -6366765#18.129 -6384350#3 -6384350#3.9 -6384350#3.48 -6384350#3.94 -6508650#2 -6508650#2.140 -6508650#2.252 -256993082#5 -256993082#5.11 -256993082#3 -256993082#3.4 -256993082#3.32 -256993082#3.38 -395928755#1 -395928755#1.9 -460423542#3 -460423542#3.23 -460423542#3.25 6430733#0 6430733#1 -6511393#8 6343952#2 -6349123#7 -6349123#6 -6349123#6.48 -6349123#6.62 -6349123#6.115 -723052304#0 -723052303 -568586006 -568586005 -6522850#4 -6522850#4.47 -6522850#4.62 -6522850#4.109 -6522850#4.114 -6522850#4.122 -749622503#30 -749622503#30.5 -749622503#30.9 -749622503#30.79 -749622503#30.85 -749622503#30.120 -749622503#25 -749622503#25.7 -749622503#25.85 -759056694#10 -759056694#10.10 -759056694#10.50 -759056694#10.73 -759056694#10.89 -759056694#6 -759056694#6.7 -759056694#6.25 -759056694#6.49 -759056694#6.89 -759056694#2 -759056694#2.7 -759056694#2.25 -759056694#2.48 -738637224 -738637224.5 -738637224.9 -738637224.14 -738637224.23 -738637224.30 -165042063#1 -165042063#1.3 -165042063#1.13 -165042063#1.15 -759056491 -759056491.4 -759056491.8 -759056491.13 -759056491.17 -759056491.21 -759056491.26 -759056491.41 -759056491.81 -759056491.83 -759056491.88 -337673342#5 -337673342#5.3 -337673342#5.9 -337673342#5.13 -337673342#5.21 -337673342#5.35 -337673342#5.72 -337673342#0 6343890#0 6343890#0.54 6343890#0.56 6343890#0.58 6343890#0.59 6343890#0.61 -6475815#6 -6475815#6.16 -6475815#4 -6475815#3 -6475815#3.2 -6475815#3.17 -6475815#3.46 -428089348#3 -428089348#3.15 -428089348#3.21 -428089348#3.28 -353690151#5 -353690151#5.11 -353690151#5.12 -353690151#5.26 -353690151#5.83 -353690151#5.102 -293753571#3 -293753571#3.3 -293753571#3.7 -293753571#3.21 -369877031#7 -369877031#7.10 -369877031#7.98 -369877031#7.191 -749622503#8 -749622503#8.7 -749622503#8.63 -749622503#8.83 -749622503#4 -749622503#4.84 -749622503#2 -749622503#2.9 -749622503#2.29 -749622503#2.64 -749622503#2.84 -369877039 -369877039.36 -369877039.55 -428088903#1 -428088903#1.15 428231018#0 428231018#0.12 428231018#0.30 465971497#0 465971497#0.10 465971497#0.34 369877037#0 369877037#0.9 369877037#0.83 537686684#0 537686684#0.43 537686684#0.53 -332223489#3 -332223489#3.4 -332223489#3.15 -332223489#3.17 -332223489#3.21 -401497115 -401497115.113 -401497115.170 -401497115.214 -428233435 -460425668 -460425668.5 -6457806#2 -6457806#2.21 -6457806#2.25 -6457806#2.30 6465162#0 6465162#0.2 6465162#0.6 6465162#0.11 6465162#0.36 428233434 428233434.31 428233434.58 332223487#0 332223487#0.16 332223487#0.62 332223487#0.98 893872038 893872038.9 893872038.14 893872038.97 893872038.123 893872038.129 893872038.134 347092915#0 347092915#0.8 347092915#0.32 347092915#0.44 347092915#0.89 347092915#0.182 6506833#11 6506833#11.9 6506833#11.45 6506833#11.74 6506833#11.79 6506833#15 6506833#15.8 6506833#15.10 6506833#15.35 6506833#18 6506833#18.45 749863323#4 749863323#4.7 749863323#4.50 749863323#4.155 749863323#4.186 760645197#0 760645197#0.6 760645197#0.45 760645197#0.84 844067888#0 844067888#0.8 844067888#0.63 844067888#0.137 844067888#0.187 -6388742#11 -6388742#11.8 -6388742#11.30 -6388742#11.46 -6388742#11.67 -6388742#11.87 -6388742#5 -6388742#5.6 -6388742#5.38 -6388742#2 -6388742#2.30 -6388742#2.38 965874292#7 965874292#7.8 965874292#7.41 965874292#10 965874292#10.35 965874292#12 965874292#12.8 965874292#12.69 158123767#0 158123767#0.10 158123767#0.11 158123767#0.50 158123767#0.74 158123767#0.86 158123767#0.115 158123767#0.122 158123767#0.134 158123767#0.139 158123767#0.166 795669782#0 795669782#0.54 6414318#1 6414318#1.86 6414318#3 -157167355#0"/>
</vehicle>
</routes>
