<?xml version="1.0" encoding="UTF-8"?>
<routes xmlns:xsi="http: // www.w3.org/2001/XMLSchema-instance" xsi:noNamespaceSchemaLocation="http: // sumo.dlr.de/xsd/routes_file.xsd">
<vType id="veh_passenger" vClass="passenger"/>

<vehicle id = "veh0" type= "veh_passenger" depart="0" >
<route edges =" -45342801#4 -45342801#3 -45342801#2 -45342801#1 -45342801#0 45342798#2 45342798#3 45342798#4 45342798#5 45342813#0 45342813#1 45342813#2 -45342814#1 44740902#11 44740902#12 44740902#13 44740902#14 44740902#14.81 44740902#14.94 -874839172#0 -44740943 -313316091#20 951438760#0 951438760#1 -44740929#4 -951438759 44740922#2 44740922#2.25 44740953#0 44740953#2 44740953#3 44740953#4 44740953#5 44740953#6 44740953#7 44740949#2 -44740919#1 -44740919#0 44740920#8 -313316091#0 -313316091#0.27 -313316091#0.72 -313316091#0.80 -971495601#9 -971495601#9.28 -971495601#8 -971495601#7 -971495601#6 -971495601#5 -971495601#3 -971495601#1 -971495601#0 -313316086 -44739144#26 -44739144#24 -44739144#22 -44739144#21 -44739144#20 -44739144#19 -44739144#19.14 -44739144#18 -877398366#21 -877398366#20 -877398366#19 -877398366#18 -877398366#17 -877398366#17.7 -877398366#16 -877398366#15 -877398366#15.29 -877398366#14 -877398366#14.72 -877398366#13 -671191680#14 -671191680#13 -671191680#11 -671191680#9 -671191680#8 -671191680#6 -896786326#1 -896786326#0 -896786328#0 -896786328#0.177 -951951638#10 -951951638#10.18 -951951638#9 -951951638#8 -951951638#7 -951951638#5 -951951638#4 -951951638#3 -951951638#2 -951946794#1 -951946794#0 951946792#1 896786337#8 896786337#8.8 -951887683 -951887684 -951887682#6 -951887682#5 -951887682#4 -951887682#3 951887692 -951887691#0 -951887682#0 -951887700#14 -951961240#3 -951961240#1 -951961245 951891772#0 -951891773 -951891771#0"/>
</vehicle>
<vehicle id = "veh1" type= "veh_passenger" depart="0" >
<route edges =" 45342801#5 45342801#5.32 902433317#3 902433317#4 902433317#6 902433317#7 902433317#8 902433317#8.29 951368593#1 972507120#2 45342812#0 45342812#1 45342811#2 45342811#2.66 45344273#23 45344273#23.11 45344273#24 -897252873#2 -897252873#1 -897252873#1.42 -897252873#0 -897252873#0.25 897252876#4 45344320#2 45344320#3 -45344331#4 45344327#1 903341090 -45344335#4 -950235690#1 -950235690#0 -950235690#0.14 700254525#11 700254524#0 700254523 -700254525#0 45344272#4 950233988#0 45344283#9 45344283#10 45344283#10.15 45344283#10.46 45344283#10.69 45344283#10.88 45344283#10.150 45344283#10.196 45344283#10.260 45344283#10.377 45344283#10.468 45344283#10.514 670655885 670655885.12 896892975 971495602#12 971495602#12.26 971495602#12.77 951442813 951442812#0 -896786335#50 -896786335#49 -896786335#48 -896786335#48.15 -896786335#47 -896786335#46 -896786335#44 -896786335#44.9 -896786335#44.71 -896786335#43 -896786335#42 -896786335#42.22 -896786335#41 -896786335#40 -896786335#39 -896786335#39.27 -896786335#37 -896786335#36 -896786335#34 -896786335#33 -896786335#32 -896786335#32.17 -896786335#31 -896786335#31.22 -896786335#30 -896786335#29 -896786335#29.17 -896786335#28 -896786335#27 -896786335#27.19 -896786335#26 -951995494#1 -951995491#2 -951995491#1 -951995491#0 -896786266#12 909024250#0 909024250#1 909024250#2 909024250#4 909024250#5 909024250#6 909024239#0 909024239#1 909024239#1.17 909024239#2 909024239#2.40 -951983585 -951975994 -896786324#1 -896786324#0 -896786324#0.19 -896786324#0.132 -896786324#0.177 951951639#0 951946803#0 951946795#1 951946795#2 951946795#3 951946795#4 951946795#6 951946795#7 951946795#9 951946795#10 951946795#11 951946795#11.34 951946795#11.40 951946795#11.45 896786337#10 896786337#10.21 -951887700#20 -951887700#19 -671756019#4 -951961235 951961234#1 -951878265#2 -951878265#1 -951878265#0 951878264#2 -951878263#3 -951878266#4 -951878266#4.37 -951878266#2 -951878266#1 -951878266#1.39 -951878266#1.47"/>
</vehicle>
<vehicle id = "veh2" type= "veh_passenger" depart="0" >
<route edges =" 951370989 951370989.40 951370989.47 951370989.53 951370989.56 951370989.62 951370989.64 951370989.67 -902433320#1 -902433320#0 902433321#2 45342799#21 45342809#0 45342809#1 45342809#2 45342809#3 45342809#4 45342809#5 45342809#6 45342809#7 45342809#8 44740885#10 -45342826#1 -45342826#0 45342825#1 45342825#2 45342828#0 45342828#1 45342828#1.100 -45344273#6 -45344273#6.40 -45344273#6.59 -951384598#3 -951384598#2 -951404491 -951404491.16 -951404491.28 -951404491.40 -951404491.51 -951384599#0 700249213#9 700249213#10 700249213#11 45342808#10 45342808#11 45342808#11.24 45342808#12 -897252871 -897252870 -45344310#2 -45344310#1 -45344310#0 -45344310#0.10 -45344310#0.18 -45344310#0.30 -45344310#0.41 -45344310#0.52 971495602#8 971495602#8.24 971495602#8.86 -313316104#6 -45378650#5 -45378650#5.11 -45378650#4 45378645#0 45378645#0.44 -908846596#3 -908846596#2 45378650#1 -908846593 -908846593.73 908560901#8 908560901#8.23 908560901#8.56 -313316104#0 -313316082 -45378649#12 896786296#0 896786296#1 896786296#1.36 -896786262#6 -896786262#6.15 -896786262#5 -896786262#4 -896786262#4.31 -896786262#3 -896786262#3.9 -896786262#1 -896786262#0 -896786262#0.33 -896786262#0.115 -896786260#1 -896786260#1.5 -896786260#0 -896786260#0.52 896786257#4 909024248 909024248.50 -45378665#3 -45378665#3.29 -45378665#3.50 -45378665#2 -45378665#2.36 -45378665#1 -45378665#0 -45378665#0.39 -45378665#0.75 -896786335#14 -896786335#14.27 -896786335#13 -896786335#12 -896786335#12.15 -896786335#11 -896786335#10 -896786335#10.38 -951976010#1 -951976011#0 896786321#2 -896786320#3 -896786320#3.5 -896786320#1 -896786320#0 -896786316#3 -896786316#2 -896786316#1 -896786316#1.33 -896786314 -951930663#1 -951930663#0 -877395784#11 -877395784#11.58 951946825#0 951946825#1 -951946816#4 951946844 877399011#1 951946810#2 -896786337#14 -896786337#14.40 -896786337#14.111 -952365020 -952365021 -951878231#2 -951951643#6 -951951643#5 -951951643#4 -951951643#3 -951951643#2 876509484#2 -951951642#1 -951951642#0 -951878263#5 -951878269#15 -951891772#2 -951891774 951891771#2 951878270#2 877401978#0 877401978#1 951878266#0"/>
</vehicle>
<vehicle id = "veh3" type= "veh_passenger" depart="3605" >
<route edges =" -45342801#4 -45342801#3 -45342801#2 -45342801#1 -45342801#0 45342798#2 45342798#3 45342798#4 45342818#0 -45342817#2 -45342817#1 -45342817#0 45342813#1 45342813#2 45342814#2 45342814#3 -45342803#5 -45342803#4 45342821#0 -45342822#2 -45342822#1 -45342832#1 -45342832#0 -45342804#2 -45342804#1 -45342843#3 45342803#0 44740957#0 -951417477 -45342843#1 -45342843#0 44740957#2 671399046#1 -671399056 671399058#2 44740901#4 44740901#5 -44740891#4 974189220#1 974189220#2 974189220#3 951417475#1 44740901#2 -44740957#5 -671399051#1 -671399051#0 44740942#2 44740942#2.58 -874839172#0 -44740943 -313316091#20 951438760#0 951438760#1 44740929#5 951438761 313316089 44740901#0 -44740942#0 974189220#5 902433296 44740967#0 44740929#7 -951439009 -44740962#1 -44740963 44740930#15 44740930#16 -44740967#2 -951438763#1 -951438763#1.52 -951438762 -44740929#1 -44740929#0 -44740930#11 -44740930#10 -44740930#9 44740925#0 44740989#0 44740989#1 -44740922#6 -44740922#5 -44740922#5.62 -44740927#17 -44740927#16 -44740924#1 -44740955#2 -44740955#1 -44740955#0 44740925#3 -44740927#14 -44739167#11 -44739167#10 -44740930#7 -44740930#6 44739163#15 44739163#16 -44740926#8 -44740926#7 44740928#1 -951358805#1 -951358802 -44740927#11 -951358801 44740953#6 44740952 -44740951#0 -44740953#4 44739167#13 -44740945#1 44740946#0 44740948#0 44740948#1 44740940#2 -313316091#12 45378690#0 45378690#0.38 45378690#1 45378686#0 45378686#1 45378658#1 45378658#2 -45378640#1 -45378687#1 -45378688#1 45378655#0 45378655#1 45378655#2 45378655#3 -45378685#2 671178935 -45378684#0 -45378684#0.58 -45378684#0.107 -313316091#5 -313316091#5.44 -313316091#4 -313316091#4.67 -44739163#20 -44740919#1 -44740931#0 -44740918#0 44740920#6 44740920#8 -313316091#0 -313316091#0.27 -313316091#0.72 -313316091#0.80 -971495601#9 -971495601#9.28 -971495601#8 -971495601#7 -971495601#6 -971495601#5 -971495601#3 -44740910#8 -671410531#2 -909019784#2 -671410530 -671410531#0 -909019784#0 313316100#8 313316100#8.72 -971495601#0 -313316086 -44739144#26 -44739144#24 903953326#0 903953326#1 -903953325#3 909778546#0 951346849 -44739144#20 -44739144#19 -44739144#19.14 -44739144#18 -44739144#16 951346850 -671960103#0 -671960104#0 -909024265#3 -909024265#2 -909024265#2.29 -909024265#1 -909024265#0 -896786289#0 -896786289#0.7 877396860#20 877396860#20.72 -904371477 -904371477.66 -904371478#1 -904371478#1.6 904371479#1 904371479#1.2 904371479#1.8 904371479#1.27 904371479#1.58 -904371474#3 -904371480 -904371480.19 -904371480.46 -904371480.53 -904371480.60 -904371480.68 -904371480.92 904286388#4 904286388#4.32 -904286389#4 -904286389#4.12 951992350#1 951992350#2 951992350#2.32 951992350#2.34 951992350#2.37 951992350#2.40 -904371481#0 -904371481#0.3 -904371482#0 -904371482#0.24 -904371482#0.73 951973452#0 951973452#1 951973452#2 -951973451#3 -951973451#1 -951973451#0 671191683#1 671191683#1.7 671191683#1.21 671191683#3 671191683#4 -904371473#4 -904371473#3 -904371471 904371472#1 904371472#1.16 -904371474#1 -904371474#0 -904371474#0.12 904286386#3 904286386#3.9 904286386#3.31 904371470#1 904286384#1 904286384#1.16 904286384#2 904286384#2.14 -877396860#14 -877396860#14.23 896786290#3 896786290#4 896786290#4.40 896786290#5 877398366#16 896786294#0 896786294#0.33 896786294#2 896786294#2.7 951992347 896786277#3 -909024256#0 -909024256#0.28 896786279#5 896786278#1 896786267#2 -904286382#4 -904286382#4.34 -904286376 -904286377#0 -904286378#0 -904286380#2 -877396860#12 -904286382#1 -904286382#0 -904286381#0 -671191680#11 -671191680#9 -671191680#8 -904286371 -904286373#2 -904286373#2.6 -904286373#1 -904286373#0 -904286375#1 -904286372#0 904286373#4 -904286385#6 951973468#1 -951973469 904371490#2 -904371492#6 -904371456#3 951973471#4 951973470#1 951973470#1.14 951973470#1.18 951973470#1.21 671191680#5 -896786326#1 -896786327#1 -896786327#1.48 -896786327#1.55 -896786327#1.60 -896786327#1.64 -896786327#1.68 -896786327#1.74 -896786327#1.124 -896786327#1.170 -896786327#1.205 -896786327#1.211 -896786327#0 877395784#22 877395784#22.56 904371492#0 904371492#0.68 -904371493#5 -904286385#1 -904286385#0 -952002224#7 -952002224#7.17 -952002224#7.71 -952002224#6 -952002224#5 -952002224#5.5 -952002224#4 -952002224#4.27 -952002224#3 -952002224#3.30 -952002224#3.48 -952002224#3.80 904286410#0 904286410#0.33 904286409#0 904286409#1 -951874861 904286402#2 951874858#0 -951874860#4 -951874871 -951874871.18 -951874871.21 -951874871.24 -951874871.28 951874858#2 896786339#3 896786339#3.3 896786339#4 896786339#4.4 -904286410#3 -904286410#2 -904286411#3 951874850#0 -951874849#1 -951874849#0 -951874848#0 -952002224#1 896786337#4 951951638#0 -952000397 951951639#15 896786337#6 896786337#7 896786337#8 896786337#8.8 -951887683 -951887684 -951887682#6 -951887682#5 -951887682#4 -951887682#3 -951887682#2 -951887682#2.37 -951887682#1 -951887682#1.2 -951887682#1.5 -951887682#0 -951961243 -951961242#0 -951961240#1 -951961245 951891772#0 -951891773 -951891771#0"/>
</vehicle>
<vehicle id = "veh4" type= "veh_passenger" depart="3605" >
<route edges =" 45342801#5 45342801#5.32 902433317#3 951421968#0 951421968#1 951421968#1.20 951421968#2 951421968#2.9 -45344271#34 -951368598#1 -951368598#0 902433317#6 902433317#7 902433317#8 902433317#8.29 902433317#9 951368594#0 951368594#1 -951369743#1 -951369743#1.33 -951369743#1.39 951421966 -951366780#1 -951366780#1.2 -951366780#1.41 -951366780#0 951369747#1 951366781#2 951366781#2.22 951366779#1 45342812#1 45342811#2 45342811#2.66 -45344273#22 -45344273#22.6 -45344273#22.18 -45344273#22.35 -45344273#21 -45344273#21.28 -45344273#19 45344322#0 -951404485 -45344321#0 -45344273#17 -45344273#17.20 -45344273#17.31 -45344273#16 -45344273#16.5 -45344273#16.30 902433295#0 902433295#0.35 -951370982#1 -951370982#0 45344293#2 45344293#2.25 45344293#2.26 45344293#2.28 45344293#2.29 45344293#2.30 45344293#2.32 45344293#2.33 45344293#3 -897252876#10 -897252876#9 902433295#2 902433295#3 902433295#4 902433295#4.36 902433295#4.49 902433295#5 -45344326#0 -45344326#0.20 -45344326#0.39 45344330#1 45344333#1 45344333#2 45344331#2 45344331#3 45344331#4 45344320#4 -897172091#13 -950400189 -45344335#5 -903341090 -897172091#10 -897172091#9 -897172091#8 699875133 -699875130#0 -699875130#0.26 699875131#1 45344335#2 45344335#3 -950235690#1 950235691#0 950235691#0.22 950400191 950400191.10 950400191.18 950400191.24 950400191.29 700254524#0 700254524#1 45344336#5 45344336#6 45344336#6.56 950235692#0 950235694#3 -950235703#3 -950455051#1 -950455051#1.51 950455050 950455050.9 950455050.11 950455050.13 950455050.15 950455050.26 950455050.29 950455050.31 950455050.34 950455050.49 950455050.55 950455050.63 951381436 951381436.26 951381436.34 951381436.39 951381436.45 897252875#2 897252875#2.4 897252875#3 45344273#28 45344273#29 45344273#29.12 45344273#29.34 45344273#30 45344273#30.8 45344273#30.25 45344273#30.39 45344273#31 45344273#31.5 45344273#31.16 45344273#32 45344273#32.22 45344273#32.44 45344273#33 45344273#34 45344273#34.26 45344278#0 45344278#0.58 45344278#0.62 45344278#0.65 -903341095#2 -903341095#1 -903341095#0 -45344271#17 -45344278#5 -45344278#4 -950238182#3 -950238182#2 -950238182#2.10 -950238182#1 -950238182#1.7 -950238182#1.15 -950238182#1.25 -950238181#1 -950238181#0 -950238180#4 -950238180#4.38 -950238180#3 -950238180#3.35 -950238180#3.57 -950238180#3.61 -950238180#3.64 -950238180#2 950238184#4 -950235722#2 -950235722#1 -950235722#1.25 -950235722#1.38 -950235722#1.43 -950235722#1.46 -950235722#0 -950235722#0.6 -950235722#0.12 -950806855#3 -45344277#1 -45344277#0 -45344276#2 903373125#0 903373125#1 903373125#1.14 903373125#1.24 903373125#1.33 903373125#1.41 903373125#1.50 950235713#0 950759344 950759344.25 950759344.36 950759344.47 -950759347#1 -950759347#1.4 -950759347#1.8 -950759347#1.13 -950759347#1.29 -950759347#1.34 -950759347#1.39 -950759347#1.44 -950759347#1.51 -950759347#1.81 -950759347#1.85 -950759347#0 -950759347#0.3 45344271#21 950755153 950755153.14 950755153.22 950755153.29 950755153.35 950755153.53 950235707#1 897252886#1 897252886#1.30 897252886#1.51 950239855 -950755152#2 -950755152#2.42 -950755152#2.59 -950755152#2.65 -950755152#0 -950755152#0.23 -950755152#0.35 45344271#24 45344271#25 45344271#26 45344271#26.18 950235711#0 -950757962#1 950757961 -950757964#0 950235711#3 -951132942#2 -951132942#1 -951132942#0 950235714#2 950235713#2 950235713#2.43 950235713#3 -950757960#0 -902433292#8 -950238194#1 950757958#1 950757958#2 -950759349#0 -950759349#0.28 -902433292#5 876614905#0 876614905#0.63 950235718#0 950235718#0.14 950235718#0.21 950235718#0.29 -950235714#5 -950780327 -950235719#3 -950235719#1 -950235719#1.22 -950235719#1.35 -950235719#0 -950235719#0.5 950235717#2 950235717#2.13 950235717#2.33 950235717#2.37 950235717#2.41 950235717#3 950235717#3.7 950235717#3.9 950235717#3.12 950235717#3.15 902822419#7 902822418 950235725#0 -950235726#0 -950235727#6 -950235727#5 -950235727#4 -950235727#3 -950806852#2 -950806852#2.18 -950806852#2.27 -950806852#2.38 -950806852#2.43 -950806852#2.48 950235725#5 -950806858 45344277#7 -950235723#1 950806860#1 950806850#1 45344277#9 -897252880#5 -897252880#4 -897252880#3 -897252880#2 -897252880#2.15 950241845#1 950641816#5 950641816#6 -950872165#4 -950641807#1 -950641807#1.20 -950641807#1.25 -950641807#1.30 -950641807#1.33 -950641807#1.38 -950641807#1.42 -950641807#1.47 950235729#2 950235729#3 950235729#4 950235729#5 -951077739#2 -951077739#2.26 -951077739#2.30 -951141446 -951141446.24 -951141446.29 -951141446.35 -951141446.41 -951141446.45 -951141446.50 -950241823#0 950641812#0 950641812#2 950641812#3 950641812#4 950641816#9 950235732#0 950235732#1 -950235733#0 -950641813#1 -950641813#1.14 -950641813#1.27 -950641813#1.43 -950641813#1.59 -950641815#1 -950641815#1.35 -950641815#1.42 -950641815#1.47 -950641814 -950238188#3 -950238188#2 950238186#0 -950241847#3 -950241847#2 -902433322#1 -902433322#1.57 -902433322#0 -902433322#0.69 -45344282#4 -45344282#3 -45344282#2 -45344282#2.18 -45344282#2.53 -950553577#2 950238191 950238191.37 -45344283#0 -45344282#0 -45344272#0 -45344273#40 -45344273#38 -45344273#38.31 -45344273#38.43 -45344273#38.54 -950235701 -950732876 950235697#2 950235697#3 950235697#4 950235697#4.10 950235697#4.13 950235697#4.16 950235697#4.19 950235697#4.22 45344272#2 45344272#2.46 -45344336#3 45344283#4 45344283#5 -950553582#2 -950553582#2.27 950553580#0 950553579 950553579.70 950553579.75 950553579.82 -700278833#5 -700278833#5.31 -700278833#5.45 950318421#0 950318421#0.10 950318421#0.18 950318421#0.29 950318421#0.39 950318421#1 950233988#2 950233988#2.43 950233988#2.55 -700278833#3 -700278833#2 -700278833#2.24 950241222#0 950241222#1 950241222#1.31 950241222#1.114 950241222#3 950241223#1 950241223#1.14 950241223#1.30 950241223#1.47 950241223#2 950241223#2.11 950241223#2.26 950241223#2.37 950241223#2.47 950241223#2.62 -950390893#1 -950390893#1.23 -950390893#1.49 -950390893#1.53 -950390893#1.57 -950390893#1.63 -950241225#1 -950241224#2 950390893#4 950390893#4.14 950390893#4.31 950390893#4.48 -45344280#8 -45344280#8.26 -45344280#7 -45344280#6 -45344280#6.17 -45344280#4 950394096#0 -950394095 950241866#3 950241866#3.97 950241866#3.100 950241866#3.104 950241866#4 950241869#0 950241869#0.6 950241869#0.16 950241869#1 950241869#1.29 950241869#2 950241869#2.5 950241869#3 950241869#3.5 950241869#3.10 950241869#3.17 950241869#4 950238192#1 950238192#1.16 950238192#2 950238192#2.2 950238192#2.5 950241233#2 950394093#0 -950394090#2 -950394090#2.4 -950394090#2.9 -950241865#1 -950241865#0 950241848#0 -950241857#2 -950241863 -950241863.27 -950241863.30 -950241863.34 -950241857#0 950241861#1 950241861#2 950241850 -950241851#0 950241857#4 -950243393#0 45344282#7 897252878#0 897252878#1 897252878#2 950396020#0 950396020#1 950396020#1.21 950241209#0 950241209#2 950241209#2.6 950241209#2.13 950241209#2.18 950241209#2.32 950241209#2.44 950241209#2.66 950241209#2.89 950243392#1 -950243391#0 -950243391#0.66 -950243391#0.74 -950243391#0.79 -950243391#0.86 -950243391#0.116 -950241209#4 -950241209#4.34 -950396025 -897252877#0 -897252877#0.24 -45344280#2 -45344280#2.7 -45344280#0 -45344280#0.24 -45344280#0.53 897252879#13 950389244#0 950389244#0.30 950390892#1 950390892#1.66 950390892#1.108 950390892#1.149 950390892#1.152 950390892#1.154 950390892#1.157 897252879#15 897252879#17 897252879#18 897252879#18.162 897252879#19 897252879#19.29 897252879#20 897252879#21 897252879#21.85 897252879#22 897252879#23 896892972 896892973 896892973.27 896892973.31 -896786335#50 -896786335#49 -896786335#48 -896786335#48.15 -896786335#47 -896786335#46 -896786335#44 -896786335#44.9 -896786335#44.71 -896786335#43 -896786335#42 -896786335#42.22 896892983#0 896892983#0.10 896892983#1 896892983#1.19 -951421976 896892982#2 -896786335#39 -896786335#39.27 -896786335#37 -896786335#36 -896786335#34 -908869252#3 -908869252#3.7 -908869252#3.13 -908869252#3.35 -908869252#3.57 -908869252#3.88 -908869252#3.90 -908869252#3.94 -908869252#1 -908869252#0 -908869252#0.17 -896786335#30 -896893028#5 951354771#0 951354771#1 -951354773#2 -951354773#2.2 -951354773#2.27 -951354773#2.50 -951354773#2.74 -951354773#2.80 -951355289#1 -951355289#0 -896893028#1 -896893028#1.14 896893014#0 896893014#0.49 896893015#1 896893015#1.26 -896893016#1 896893017#0 -896893018#1 -896893018#1.27 -896893018#0 -877388728#13 -877388728#13.55 896893004#0 896893004#2 896893004#3 896893004#3.24 896893004#4 896893002 896893002.42 -896786335#22 -896786335#21 -896786335#21.41 -896786335#19 -896786335#18 -896786335#17 -896786335#17.2 -896786335#16 -896786335#16.7 909024246 909024246.10 909024246.18 909024246.25 909024246.61 909024250#6 909024239#0 909024239#1 909024239#1.17 909024239#2 909024239#2.40 877398366#3 -951995475#3 -951995475#2 -951995475#1 -951995475#1.25 -951995475#0 909024289#0 909024289#0.3 909024289#0.8 909024289#0.10 909024289#1 909024289#1.7 909024289#1.34 909024289#1.47 909024289#1.63 909024289#1.68 909024289#1.112 -909024288#1 -909024288#0 -896786287#2 896786292#4 896786292#4.57 -896786286#2 -896786286#2.18 -896786286#1 -896786286#1.14 -896786286#0 -896786286#0.12 -877398366#8 -877398366#8.18 -877398366#8.84 -877398366#6 -904371457 904371458#0 904371458#0.18 904371458#1 -877396860#4 -896786328#3 -896786328#3.70 -896786328#2 -896786328#2.49 896786325#2 -896786324#1 -896786324#0 -896786324#0.19 -896786324#0.132 -896786324#0.177 951951639#0 951951639#1 951951639#3 951951639#4 951951639#6 -951946800#0 -951951638#5 -951951638#4 951946798#1 951951639#10 951951639#11 951946796#0 951946796#1 951946795#10 951946795#11 951946795#11.34 951946795#11.40 951946795#11.45 896786337#10 896786337#10.21 -951887700#20 -951887700#19 -671756019#4 -951961235 951961234#1 -951961233#1 -951961253 -951961253.4 -951961253.8 -951961253.13 -671756019#2 -671756019#2.4 671756018 -876509484#8 -876509484#8.19 -876509484#7 -876509484#7.6 -876509484#7.25 -876509484#6 -876509484#6.3 -876509484#6.8 -876509484#6.12 -876509484#6.15 -876509484#5 -951878267#1 -951878267#0 -951878267#0.26 -951878267#0.29 -951878267#0.32 -951878267#0.34 951878265#0 951878265#1 951878263#1 951878263#1.39 951878263#1.46 951878263#1.53 951878263#1.72 951878263#1.75 951878263#2 951878263#2.2 -951878266#4 -951878266#4.37 -951878266#2 -951878266#1 -951878266#1.39 -951878266#1.47"/>
</vehicle>
<vehicle id = "veh5" type= "veh_passenger" depart="3605" >
<route edges =" 951370989 951370989.40 951370989.47 951370989.53 951370989.56 951370989.62 951370989.64 951370989.67 -902433320#1 -902433320#0 902433321#2 -45342799#20 -45342797#4 -45342797#3 -951368601#1 -951368601#0 -951368603#0 -45342835#1 -45342835#0 -45342797#0 -45342834#1 -45342834#0 44740902#8 44740902#9 44740902#9.47 -951370984#2 -951370984#1 -45342816#0 45342817#1 45342817#2 45342818#1 45342818#2 951370985#0 951441769 45342836#2 45342809#6 45342809#7 45342809#8 44740885#10 -45342826#1 -45342826#0 -45342825#0 45342809#11 -45342831#3 -45342831#2 -951417482#2 -951417480#1 -951417480#0 -45342805#3 951417481 -951417482#0 45342805#1 45342805#1.19 951417479 45342809#16 45342833#0 45342833#1 45342833#2 45342833#3 -951366786 45342824#3 45342823#2 45342828#1 45342828#1.100 -45344273#6 -45344273#6.40 -45344273#6.59 -951384598#3 -951384598#2 -951404491 -951404491.16 -951404491.28 -951404491.40 -951404491.51 -951384599#0 700249213#9 700249213#10 -951404492 700249212#3 45342808#9 45342808#10 45342808#11 45342808#11.24 951417471 951417471.18 951417471.38 951370965#1 951370965#1.28 951370965#1.49 45344314#2 45344314#3 -45344315#2 -45344315#1 -45344315#1.25 897252869#1 897252861 -897252860#0 -897252868#2 -897252868#1 -897252868#1.11 -897252868#1.30 700249213#4 700249213#4.7 700249213#4.65 700249213#4.70 700249213#4.76 -45344292#4 45344290#2 45344290#3 45344290#3.33 45344290#3.44 45344290#3.54 45344290#4 45344290#5 45344290#5.39 45344290#5.109 -45344294#0 45344304#6 45344304#6.25 45344304#6.56 45344304#6.82 -951370973#1 951370972 951370971#0 951370971#1 951370963 897252863#5 897252863#6 897252863#7 45344287#3 45344287#3.3 45344287#3.50 -700249213#2 -700249213#1 951439195 897252867#1 897252867#1.15 897252864#0 897252864#1 897252864#3 -897252871 -897252870 -45344310#2 -45344310#1 -45344310#0 -45344310#0.10 -45344310#0.18 -45344310#0.30 -45344310#0.41 -45344310#0.52 971495602#8 971495602#8.24 971495602#8.86 -313316104#6 -45378650#5 -45378650#5.11 -45378650#4 -45378650#3 -45378650#3.29 -45378650#2 -45378650#2.42 -45378650#2.62 -45378650#1 -45378650#0 -45378650#0.43 -908846594#0 908846595#1 908846596#3 908846596#4 45378646#2 45378646#2.42 45378646#3 45378646#4 45378646#4.84 45378646#4.109 908560901#3 908560901#4 908560901#4.8 908560901#5 908560901#5.28 908560901#5.87 908560901#6 908560901#6.50 908560901#6.91 908560901#6.131 908560901#7 908560901#8 908560901#8.23 908560901#8.56 -313316104#0 -313316082 -45378649#12 896786296#0 896786296#1 896786296#1.36 896786296#2 896786296#2.35 -896786254#1 -896786254#1.26 951355294#1 951355294#1.19 951355294#1.22 951355294#1.23 951355294#1.24 951355294#1.25 951355294#1.27 951355294#1.28 951355294#1.31 951355294#1.41 951355294#1.42 951355294#1.43 951355294#1.44 951355294#1.45 951355294#1.47 -896786258#2 -896786258#2.22 -896786256 -896786256.31 -896786256.68 -896786256.122 -896786260#4 -896786260#4.11 -896786260#3 -896786260#1 -896786260#1.5 -896786260#0 -896786260#0.52 896786257#4 909024248 909024248.50 45378665#5 45378665#5.9 -951995477 -951995477.15 -951995477.23 909024287#2 896786283#3 896786283#3.18 951433465 876614861#4 951358818#0 951358818#0.49 951358818#0.51 951358818#0.52 951358818#0.53 951358818#0.56 951358818#0.57 951358818#0.59 -951358817 -951358817.15 -951358817.19 -951358817.24 -951358817.27 -951358817.32 876614861#6 876614861#6.60 45378665#13 45378665#13.5 45378665#14 45378665#14.10 45378665#14.32 45378665#16 45378665#17 45378665#17.10 45378665#17.29 45378665#17.54 -951346845 -951346845.45 -951346845.46 -951346845.48 -951346845.49 -951346845.51 -951346845.52 -951346845.76 -951346845.78 -951346845.80 -951346845.82 -951346845.84 -951346845.103 -951346845.133 -951346845.138 -951346845.141 -951346845.144 -951346845.148 951347813#0 951347813#0.59 -951433464 951347814#1 951347814#1.5 951347814#1.9 -951346847 -951346847.28 -951346847.37 -951346847.45 -951346847.52 -951346847.78 -951346847.86 -951346847.93 -951346847.99 -951346847.106 -951346847.111 -951346847.116 896786267#0 896786267#0.23 896786267#0.26 896786267#0.28 896786267#0.30 896786267#0.33 896786267#0.53 896786267#0.75 896786267#0.212 -896786269#3 -671191680#16 -671191680#16.26 -671191680#16.32 -671191680#16.34 -671191680#16.37 -671191680#16.39 877396033#0 877396033#1 877396033#1.18 896786284#0 896786284#0.89 877398366#12 -671191680#14 -671191680#13 -904371463#1 -904371463#1.79 904371462#0 904371462#1 904371462#1.16 904371462#1.101 904371460#0 904371460#0.34 904371460#1 904371460#2 904371460#2.34 904371457 -896786291#1 -896786291#1.49 -896786291#0 -896786291#0.44 896786292#2 896786292#2.23 896786292#2.61 -877398520#2 -877398520#2.20 -951995479#1 -896786287#0 -896786287#0.41 896786286#1 896786286#1.15 896786286#2 896786286#2.19 896786286#3 896786286#4 896786286#4.10 896786286#4.60 -909024289#3 -909024289#3.21 -909024289#2 -909024289#1 -909024289#1.25 -909024289#1.69 -909024289#1.74 -909024289#1.90 -909024289#1.103 -909024289#1.130 -909024289#0 -909024289#0.2 -909024289#0.5 -909024289#0.10 896786293#2 896786293#2.8 896786293#2.28 896786293#2.36 896786293#2.45 896786293#2.48 896786293#2.52 -45378665#2 -45378665#2.36 -45378665#1 -909024250#6 -909024246 -909024246.27 -909024246.63 -909024246.70 -909024246.79 -896786335#15 -896786335#14 -896786335#14.27 -896786335#13 -951983587#9 -951983587#8 -951983587#7 896786304#7 896786304#7.11 896786304#8 896786304#8.15 896786304#9 896786304#9.20 896786311#11 896786311#11.62 896786311#12 896786311#12.29 896786311#13 896786311#13.28 -896786335#10 -896786335#10.38 -896786335#9 -896786335#8 -896786335#8.39 -951976009#1 -951976006#2 -951976007 -896786335#6 896786319#0 896786319#0.19 896786319#1 896786319#1.7 896786319#2 -896786315#4 -896786315#2 896786320#0 896786320#1 951930673#0 -951930675 -877396172#3 -877396172#1 -877396172#1.57 -877396172#0 -877396172#0.15 896786313#3 896786313#3.51 896786313#3.88 896786313#3.110 896786313#3.151 896786313#3.164 896786313#3.186 896786313#3.223 896786313#3.237 896786313#3.246 896786313#3.253 896786312#2 896786312#2.18 896786312#2.32 951930662#1 951930662#1.184 -951930663#0 877395784#12 877395784#13 877395784#13.21 877395784#14 877395784#14.58 951946833#0 -951946816#11 951946817#1 951946817#2 951946817#3 -951946818#3 -951946818#3.18 -951946818#3.21 951946821#0 951946821#0.45 951946821#0.47 951946821#0.51 951946821#1 951946821#2 951946820#1 -951946816#6 -951946816#6.36 -951946816#6.40 -951946816#6.43 -951946816#6.46 -951946816#5 -951946816#5.8 -951946816#5.11 -951946816#5.14 -951946816#5.18 -951946816#4 951946844 877399011#1 951946810#2 -896786337#14 -896786337#14.40 -896786337#14.111 -952365020 -952365021 -951878231#2 -951951643#6 -951951643#5 -951951643#4 -951951643#3 -951951643#2 876509484#2 876509484#3 -951951650 -951951648#2 -951951642#0 951878263#6 951878263#7 951878263#8 951878230#4 -951891772#4 -951891772#3 -951891772#2 -951891774 951891771#2 951878270#2 951878270#3 951878270#4 -951887656#2 -951887656#1 -951887656#0 -951887655#3 -951887655#2 -951887655#1 -951887655#0 904196454#1 904196454#1.35 904196454#2 951887659#0 -951887660#5 -951917022 951887661#1 951887662 -951887660#2 -951887663#3 951887661#3 951878266#0"/>
</vehicle>
<vehicle id = "veh6" type= "veh_passenger" depart="7210" >
<route edges =" -45342801#4 45342799#23 672813677#0 672813677#0.22 672813677#0.51 672813677#1 672813677#1.14 672813677#1.27 672813677#2 672813677#4 672813677#4.8 -903341082#0 -903341082#0.45 -45342801#2 -45342801#1 -45342801#0 45342798#2 45342798#3 45342798#4 45342818#0 45342818#1 45342836#0 -951441769 -951370985#0 45342818#3 45342814#5 45342809#8 -44740885#9 -44740885#9.34 -44740885#8 -45342841 45342802#2 -45342803#1 -45342803#0 -45342843#2 -45342843#1 -45342843#0 44740957#2 44740957#4 -671399051#1 -671399051#0 -44740942#1 44740901#1 44740901#2 44740957#6 44740957#7 44740957#8 974189220#3 974189220#4 974189220#5 902433296 44740967#0 -44740929#6 -44740929#5 -951438760#1 -672215964 672215965#1 -44740922#0 -313316091#16 45378639#0 45378639#0.48 45378639#1 45378639#1.38 45378639#2 45378639#2.25 45378639#2.39 951439125#0 951439125#0.15 951439125#0.23 951439125#0.33 -951439124 -951439124.39 -951439124.43 -951439124.48 -951439124.52 45378639#4 -699869913 -699869913.14 -699869913.19 -699869913.23 -699869913.28 -45378640#3 -45378640#2 45378658#3 -45378683#3 -45378683#2 -45378655#1 45378640#0 -45378687#1 -45378687#0 -45378686#0 -45378689#2 -45378689#1 -45378682#1 -45378682#0 -45378682#0.30 313316091#10 313316091#10.40 313316091#11 313316091#12 -44740940#2 -44740940#1 44740945#0 44740945#1 44739167#14 44740949#0 -44740951#1 -44740951#0 44740953#5 951358801 951358806#0 951358806#1 -44740926#7 -44740926#6 -44740926#5 -44740925#1 44740989#0 44740923#1 44740923#2 44740927#17 -44740967#4 -44740967#3 -44740930#16 -44740930#15 44740963 -44740962#0 44740960#1 44740929#9 44740929#9.20 44740929#10 955813295#1 955813295#1.169 955410233 955410234 102277232#1 102277232#2 102277232#2.138 102277232#3 102277232#4 102277232#4.80 102277232#4.133 102277232#4.154 102277232#5 -951438769 44740930#2 -951346853 -44740939#0 -951358794#0 -44740930#0 -44740930#0.64 896892969#13 896892969#13.22 896892969#13.80 896892969#13.126 896892969#14 896892969#14.13 951358796 -44740937#0 -951358794#2 44740935 -44740920#1 -44740920#0 44740930#4 44740930#5 44739163#15 -44740981#1 -44740981#0 44739156#15 44739156#16 -44740927#4 -44740927#3 44740920#3 951358797#0 951358797#0.19 951358797#0.36 951358797#0.45 951358797#0.49 951358797#0.51 951358797#0.53 951358797#0.55 951358797#0.57 951358797#0.58 951358797#0.64 951358797#0.66 951358797#0.68 951358797#0.70 951358797#0.72 951358797#0.75 951358798#0 951358798#0.18 951358798#0.20 951358798#0.23 951358798#0.24 951358798#0.26 951358798#0.29 951358798#0.41 951358798#0.43 951358798#0.44 951358798#0.46 951358798#0.48 951358798#0.51 951358798#0.55 951358798#1 951358798#1.17 44740927#6 -951366798 -951366798.30 -951366798.39 -951366798.48 -951366798.59 -951366798.70 -951366798.78 -951366798.83 -951366798.89 951358797#3 951358800#1 44740927#9 44739163#18 -44740918#2 -44740918#1 -44740918#0 44740920#6 44740920#8 -313316091#0 -313316091#0.27 -313316091#0.72 -313316091#0.80 45340579#18 45340579#18.164 44740932#0 909019790#0 909019790#0.39 909019790#1 909019791#1 -909019788 -909019789#1 -909019789#0 -909019789#0.59 -909019789#0.61 -909019789#0.64 -909019789#0.68 -44740933#0 -44740916#4 -44740916#4.29 -909019776#1 -909019776#1.34 909019774 909019774.53 909019774.58 909019774.63 44740910#3 44740910#4 44740933#3 44740933#3.108 44740933#3.192 -44740932#6 44740910#6 909019782 909019781#1 -44740932#3 44740916#8 44740916#9 44740916#9.64 44740916#11 -971495601#6 -971495601#5 -45378660#1 -45378660#1.21 -45378660#1.52 -45378660#1.88 -45378660#1.126 -908560900#3 -908560900#2 -908560900#1 -908560901#21 -908560901#21.18 -908560901#21.74 -908560901#20 -908560901#20.10 -908560901#20.61 -908560901#20.115 -908560901#19 -908560901#19.77 -908560901#19.104 -896786299#0 -896786298 -45378665#19 896786295#0 896786295#0.19 896786295#1 896786295#1.16 951347813#0 951347813#0.59 951347813#1 951347813#1.31 951347813#1.37 -909024258#0 -909024259#1 -909024259#1.12 951347814#0 951347814#0.11 951347814#0.14 951347814#1 951347814#1.5 951347814#1.9 896786295#4 896786295#5 -896786282#4 -896786282#4.21 -896786282#4.92 -896786282#3 -896786282#3.19 -896786282#3.45 896786273#0 896786273#1 896786273#2 896786273#2.36 896786273#3 896786273#3.22 896786279#2 896786279#2.21 896786269#5 896786269#6 896786269#6.25 896786269#6.71 896786269#7 -896786270#1 -909024281 -909024281.42 896786275#2 896786275#2.27 -896786271#0 896786272#1 -896786281#2 -896786281#1 896786280#1 -896786275#5 -896786275#4 -909024257 -909024257.38 -909024257.94 896786280#3 896786295#8 896786295#8.21 896786295#8.23 909024279#0 909024279#0.32 909024279#1 909024279#1.32 909024279#1.36 909024279#1.38 909024279#1.41 909024279#1.43 909024279#2 909024279#2.24 909024275#0 909024275#0.61 909024274 909024277#3 909024273#2 909024273#3 896786296#18 896786296#18.4 896786296#18.17 -903953334#9 -903953334#9.24 -903953334#9.50 -903953334#9.58 -903953334#8 -903953334#8.6 -903953334#8.17 -903953334#8.53 -903953325#4 -903953325#3 -903953325#2 -903953325#2.18 -903953325#1 903953324#0 951361609 -909778547#0 44739144#20 44739144#21 -896786294#12 -896786294#12.19 -896786294#12.25 -896786294#12.30 -896786294#12.36 -896786294#12.41 -909024262#1 -909024262#1.12 -909024262#0 -702673217#0 -44739144#18 -44739144#16 -44739144#15 671960104#0 671960104#1 671960102 -671960101#10 44740913#4 44740913#5 -44739144#12 909778560#0 909778560#0.71 903953323#1 909778559#0 672815156#0 44740912#7 -904286388#7 -904286388#7.24 -904286388#6 -904286388#6.28 904371479#0 904371479#0.10 904371479#0.23 904371479#0.35 904371478#1 904371478#1.38 904371477 904371477.56 877396860#21 -952002225#1 -952002225#0 -877398366#20 -877398366#19 896786289#2 702673217#3 909024268#0 909024268#0.30 -909024267 -909024267.44 702673217#5 -896786294#0 -896786294#0.13 877398366#17 877398366#17.93 -909024294#1 909024293#0 -909024290 -909024290.32 -877396860#16 904286386#2 904286383#0 904286383#1 896786290#2 -877396860#13 904286380#2 904286380#3 904286380#3.65 -877398366#14 -877398366#14.72 -877398366#13 671191680#15 671191680#15.58 877396033#0 876614861#0 876614861#0.13 876614861#1 -909024289#6 -909024289#6.17 -909024289#5 -909024289#4 -896786286#4 -896786286#4.15 -896786286#4.66 -896786286#3 -896786286#2 -896786286#2.18 951995479#0 896786287#1 -896786292#3 -896786292#2 -896786292#2.20 -896786292#2.58 -896786292#0 -896786292#0.39 951995475#2 -896786288#1 -896786288#0 -896786288#0.20 -896786288#0.42 -877398520#0 -877398520#0.16 -904371459 -904371459.17 -904371459.33 904371460#2 904371460#2.34 904371460#4 904371460#4.17 904371460#4.32 904371460#5 877396860#4 904371465#0 904371463#0 904371462#0 877396860#9 877396860#9.41 877396860#10 -671191680#13 904286381#0 904286382#0 -904286383#4 -904286383#3 -904286383#3.28 -904286380#0 904286381#6 -896786290#0 -904286385#12 904286375#0 904286375#1 904286375#2 904286375#2.11 904286375#3 -671191680#9 -904371467#2 -904371467#2.49 -904371467#2.113 904371464 -896786325#0 -896786325#0.9 -896786325#0.61 -896786325#0.67 -896786325#0.74 -896786325#0.80 -896786325#0.89 -671191680#6 -896786326#1 -896786326#0 -896786328#0 -896786328#0.177 -951951638#10 -951951638#10.18 -951951638#9 -951951638#8 -951973432#0 -952002224#5 -952002224#5.5 951973430#0 -951951638#4 -951951638#3 -951951638#2 -951946794#1 -951946794#0 951946792#1 896786337#8 896786337#8.8 -951887683 -951887684 -951887682#6 -951887682#5 951887686#0 -951887688#2 -951887688#1 -951887688#0 -951887687#0 -951887687#0.5 -951887682#3 951887692 -951887691#0 -951887682#0 -951961243 -951961242#0 -951961240#1 -951961245 951891772#0 -951891773 -951891771#0"/>
</vehicle>
<vehicle id = "veh7" type= "veh_passenger" depart="7210" >
<route edges =" 45342801#5 45342801#5.32 902433317#3 902433317#4 902433317#6 -951368597 45342799#26 951368596 902433317#8 902433317#8.29 951368593#1 972507120#2 45342812#0 45342812#1 45342811#2 45342811#2.66 -45344273#22 -45344273#22.6 -45344273#22.18 -45344273#22.35 -45344273#21 -45344273#21.28 45344320#0 45344320#0.59 45344320#0.67 45344320#0.75 45344320#0.90 45344320#1 45344320#2 -45344329#7 -45344329#6 -951381435 45344331#3 45344327#1 -897172091#10 -950400190 -45344335#2 -45344335#1 -950235689#2 -950400194#1 -950400194#0 -950400195#1 -950400195#1.7 -950400195#1.14 -950400195#1.22 -950400195#1.28 -950400195#1.34 -950400195#1.42 -950400195#1.48 -950400195#1.59 -950400195#1.74 -950400195#1.82 -950400195#0 700254525#6 700254525#8 700254525#9 700254525#11 700254525#12 700254525#12.12 950235692#0 950235692#1 -950455053 -950235703#0 -950235703#0.13 -950235703#0.32 -950235703#0.55 -950235703#0.71 -950235703#0.86 -950235703#0.97 -950235703#0.108 -950235699#4 950235692#4 45344273#36 45344273#36.18 -950238179#1 -950238179#0 950238178#4 950238178#4.14 -45344278#1 -903341095#2 -903341095#1 -903341095#0 45344276#0 -950759346#1 -950759346#0 950806855#5 -45344271#15 -950238184#4 -950238184#3 -950238184#3.42 -950238184#2 -950238184#2.9 -950238184#2.19 -950238184#2.27 -950238184#1 -950238184#0 897252880#8 897252880#8.48 897252880#9 -45344273#40 -950235700#3 -950235700#2 -950235697#3 -950235697#2 950732875#0 950732875#1 -950235694#1 950235695#3 -45344336#5 -700254524#1 700254523 -700254525#0 -45344272#3 -45344272#3.16 -45344272#3.30 -45344272#3.79 -45344336#3 45344283#4 45344283#5 -950553582#2 -950553582#2.27 -950553582#1 -950553582#1.2 -950553582#1.5 -950553582#1.66 -950553582#1.76 -950553582#1.84 -950553582#1.90 -950553582#1.96 -950553582#1.103 -950553582#1.114 -950553582#1.120 950553581#0 950553581#0.7 950553581#0.14 700278833#6 700278833#6.17 700278833#6.73 700278833#6.117 45344284#0 -950553572 -950238193#0 45344280#14 45344280#14.13 950553578#0 950553578#1 950553577#0 950553577#0.25 950553577#1 950553577#1.2 950553577#1.9 950553577#1.16 950553577#1.22 950553577#1.27 950553577#1.34 950553577#1.44 950553577#2 -45344282#1 -950641816#13 -950641816#13.116 -950238188#4 -950238188#3 -950238188#2 950238186#0 950238186#1 950238186#2 -45344271#6 -45344271#6.46 -45344284#9 -950241847#2 -902433322#1 -902433322#1.57 -902433322#0 -902433322#0.69 -45344281#2 950241866#9 -45344284#5 -45344284#4 -950238192#4 -950238192#3 -950241233#1 950241229#0 950394094 950394094.44 950394094.47 950394094.49 950394094.55 950394094.58 950394094.62 -950392117#1 -950392117#0 -950392117#0.22 950241230#0 -950394089 -950394089.15 -950394089.18 -950394089.21 -950241229#2 950392116#1 45344280#8 45344280#8.17 45344280#9 45344280#9.7 45344280#11 45344280#11.11 45344280#11.23 -700278832#5 -700278832#5.26 -700278832#4 -700278832#4.61 -700278832#3 -700278832#3.10 -700278832#3.21 -950392119 -950392119.13 -950392119.17 -950392119.21 -950392119.29 -950392119.36 -950392119.48 -950392119.56 -950392119.64 950392121#0 950392121#0.13 950392121#0.18 950392121#0.24 950392121#0.35 950392121#0.44 950392121#0.54 950392121#1 -951132943 -951132943.7 950241220#2 950390892#0 950390892#0.36 950390892#0.42 950390892#0.47 950390892#0.51 950390892#1 950390892#1.66 950390892#1.108 950390892#1.149 950390892#1.152 950390892#1.154 950390892#1.157 -897252879#14 -897252879#14.105 -897252879#13 -897252879#12 -897252879#12.59 -950243392#2 -950243392#1 -950243392#0 897252877#2 897252877#2.29 -45344282#7 -45344282#6 -45344282#6.21 -45344282#6.99 950241848#0 950241848#1 -950241861#2 951043905#0 951043905#1 951043905#1.35 951043905#1.39 951043905#1.42 951043905#1.46 950241859#1 -950241847#0 -950241848#4 950241855#0 950241855#1 -950241851#1 -950241851#0 950241857#4 950241857#5 -897252878#1 950396022#0 950396022#1 -950396023 950243391#2 950243391#2.3 950243391#2.6 -897252879#10 -950396020#3 -950396020#1 -950396020#1.13 -950396020#0 897252878#3 -950396018#3 -950396018#1 -950396018#0 950241208#2 950241208#2.29 -950241207#0 897252878#6 897252878#6.10 897252878#7 -950241202#5 -950241202#3 -950241202#3.7 -950241202#2 -950241202#2.5 -950241202#2.10 -950241202#2.15 -950241202#1 -950241202#1.30 -950241202#0 -897252879#3 -897252879#2 -897252879#1 -897252879#1.25 -897252879#0 -897172107 -897172108#14 897172106#11 897172106#11.24 897172106#12 897172106#12.16 897172106#12.27 -950239900#1 950239883#0 950239883#0.10 950239883#0.21 950239883#0.30 950239883#0.38 950239883#0.48 950239883#1 950239883#1.39 950239883#1.63 950239883#1.82 950239883#1.118 951132944#3 897172106#15 897172106#15.16 897172106#15.44 897172106#15.79 897615343#0 897615343#2 897615343#2.11 950293294 950293294.21 950293294.24 950293294.27 950293294.44 950293294.50 950293294.58 950293294.65 950293294.80 950293294.85 950293294.91 950293294.96 -897615342#1 -897615342#1.8 -897615342#1.23 -950241210 -950241210.27 897172106#17 897172106#17.12 897172106#18 897615338#0 -950287956#0 -950287956#0.33 -950287956#0.37 -950287956#0.40 -950287956#0.44 -950287956#0.48 -950287956#0.90 -950287956#0.102 897172106#20 897172106#20.28 -45343180#8 -45343180#8.53 -45343180#7 -45343180#7.23 -897615342#4 -897615342#4.33 -897615342#4.66 -897615342#3 897615338#2 -950287959#3 950287958#1 950287958#1.32 950287958#1.36 950287958#1.40 -950287957#0 -950287959#1 950239877#0 950239877#1 -897615339#4 -897615339#4.10 -897615339#3 -897615339#2 -897615339#1 -897615339#1.22 950239880#0 950287960 -950239879#1 -950287961 950239880#2 -950287962#2 -950287962#2.35 -950287962#1 -950287962#0 -45343180#3 -45343180#3.14 -897615334#9 -897615334#9.16 -897615334#8 -897615334#8.29 -897615338#6 -897615338#5 -897615338#5.14 -897615338#5.33 897615337 897615337.37 897615337.86 897615343#4 897615343#4.4 897615343#4.40 897615343#5 897615336#0 897615336#0.80 -950239895#0 -897615334#2 950239894#0 897615336#2 897615336#2.23 -897615335#1 -950304248#2 -950304248#2.22 950239894#2 -671176469#15 -950239895#2 -950304248#0 897615343#8 897615343#8.20 897615343#8.24 -671176469#11 -671176469#11.1 -671176469#11.8 -671176469#11.17 -671176469#10 -671176469#10.76 -671176469#9 897615369#0 897615369#0.22 897615369#0.32 897615369#0.42 897615369#1 -897615371#3 -897615368 -950232592#2 -950232592#1 -950232592#0 897615362#1 897615364#1 897615364#2 897315573#3 897315578#14 897315578#14.17 897315571#2 897315571#3 897315571#3.17 897315571#3.66 897315571#4 897315571#4.31 897315575#0 -897315573#0 671176469#4 -897315576#1 -897315576#1.19 -897315576#1.32 -897315576#1.42 -897315576#0 -897315576#0.9 -897315572#0 -897315574#2 -897315574#1 -897315574#1.30 897615363#0 897615363#1 897315577#3 -671176469#7 -671176477#11 -671176477#10 -950232596#12 -950232596#12.19 -950232596#12.30 -950232596#12.39 950278758#0 950278758#0.13 950278758#0.25 950278758#0.52 950278757 950278756#0 950278754#0 -950278752 -950278755#0 950278756#2 950232594#4 950232594#4.26 950232594#5 -950232593#1 -950232593#1.54 -897315571#6 -671176469#2 -897615348#4 -897615348#3 -897615348#3.18 -897615348#2 -897615348#1 -897615349#1 -897615349#1.30 -897615349#0 896940752#4 896940752#4.22 896940752#4.82 896940752#5 897172100#0 897172100#0.29 897172100#1 897172100#1.51 897172100#1.80 897172100#3 897172100#3.19 897172100#3.61 897172100#3.101 897172100#4 897172100#4.27 -950239875#2 -950239875#1 950239871#4 950239871#5 950239871#5.24 951141461#0 951141458#0 951141458#1 -951141459#1 -951141459#0 950232596#4 950232596#4.15 950232596#5 950232596#5.12 -951141456 951141457#2 951141457#2.17 951141457#2.21 951141457#2.27 950232596#7 950232599 951141458#3 -950232594#0 -950232594#0.15 -950232594#0.23 -671176475#3 -671176475#3.2 -671176475#3.34 -671176475#3.40 -671176475#1 -671176475#0 -671176477#6 -671176477#6.25 -950239856#3 -950239856#2 -950239856#2.35 -950239856#1 -950239856#1.19 -950241214#2 -950241216 -950241216.24 -950241216.47 950241218 950241218.22 -671176477#4 -671176477#4.46 -950239861#2 -950239861#1 -950239862#4 -950239862#3 -950239862#3.25 950239867#0 950239867#0.70 950273502#2 950273502#2.11 950239862#0 -671176478#1 -671176478#1.5 -671176478#1.11 -671176478#1.22 -671176478#1.56 -671176478#0 -671176478#0.38 -671176478#0.42 -671176478#0.45 -671176478#0.50 -671176478#0.54 -897172102 -897172103 -671176472 897252879#17 897252879#18 897252879#18.162 897252879#19 897252879#19.29 897252879#20 897252879#21 897252879#21.85 897252879#22 897252879#23 896892972 896892973 896892973.27 896892973.31 -896786335#50 -896892981#13 -896892981#13.5 -896892981#13.13 -896892981#12 -896892981#10 -896892981#10.8 951354779 951354779.19 951354779.26 951354779.35 951354779.44 -896786335#46 951358828 951358828.11 951358828.13 951358828.16 951358828.19 951358828.22 951358828.26 951358828.29 951358828.32 951358828.42 951358828.46 951358828.50 951358828.53 951358828.57 -896786247#8 -896786247#7 -896786247#7.2 -896786247#6 -896786247#6.66 -896786247#6.103 -896892976#1 -896892976#1.4 -896892977#3 -896892977#3.15 -896892977#3.37 -896892977#2 908869250#5 -908869248#1 -908869248#1.4 -908869248#1.6 -908869248#1.9 -908869248#1.11 -908869248#1.19 -951358827#2 -951358826 -951358826.10 -951358826.13 -951358826.16 -951358826.19 -951358826.36 -951358826.40 -951358826.44 -951358826.49 -896786335#42 -896786335#42.22 -896786335#41 908869237 908869237.8 908869237.20 908869237.48 -908869250#3 -908869250#2 -908869250#2.29 -908869250#2.76 -908869250#2.143 908869244#0 -908869233 -896786247#0 -896786247#0.33 -45378649#11 -45378649#11.22 -45378649#10 -45378649#10.20 -45378649#9 -45378649#9.7 896786248#0 896786248#0.6 896786248#0.16 896786248#0.93 896786248#0.127 896786248#0.165 896786248#0.179 896786248#0.211 896786248#1 896786248#1.30 896786248#1.43 -951349917#1 -951349917#1.14 -951349917#1.29 -951349917#1.41 -951349917#1.59 -951349918 -951354772#1 -951354772#1.39 -951354772#1.50 -951354772#1.59 -951354772#0 -951354772#0.6 -951355289#1 -951355289#0 896893028#3 896893028#3.12 896893028#4 896893028#4.8 896893028#5 -896786335#29 -896786335#29.17 -896786335#28 951358824#0 951358824#0.11 951358824#0.16 951358824#0.21 951358824#0.29 951358824#0.41 951358824#0.47 951358824#0.52 951354763#2 951354763#3 951354763#4 -951995493#0 -951995491#1 -951995491#0 -896786266#12 909024250#0 909024249 909024249.20 909024249.72 -896893011#1 -896893012#6 -896893012#6.12 -896893010 -896893010.14 -896893010.84 -896893013#1 -896893013#1.7 -896893009 -896893009.79 -896893012#4 -896893012#3 896893006 -896893008#0 896786300#2 896786300#2.40 896786300#2.70 896786300#3 896786300#3.17 -896786335#14 -896786335#14.27 909024236#1 909024236#1.12 909024236#1.82 909024239#1 909024239#1.17 -909024237#1 -909024237#1.34 -909024237#1.71 -909024237#1.74 -909024237#1.78 -909024237#1.82 877398366#1 877398366#1.15 877398366#2 877398366#2.36 -951983585 -951975994 896786325#3 -896786323#0 -896786323#0.137 -896786323#0.139 -896786323#0.141 -896786324#0 -896786324#0.19 -896786324#0.132 -896786324#0.177 951951639#0 951951639#1 951946802 951946795#2 951946795#3 -951946800#1 951951639#7 951951639#8 951946799 951946795#6 -951946798#2 951951639#10 951946797 951946795#9 951946795#10 951946795#11 951946795#11.34 951946795#11.40 951946795#11.45 896786337#10 896786337#10.21 -951887700#20 671756019#0 671756019#1 671756018 -876509484#8 -876509484#8.19 951878263#0 951878263#0.8 951878263#0.15 -951878265#1 -951878265#0 951878264#2 -951878263#3 -951878266#4 -951878266#4.37 -951878266#2 -951878266#1 -951878266#1.39 -951878266#1.47"/>
</vehicle>
<vehicle id = "veh8" type= "veh_passenger" depart="7210" >
<route edges =" 951370989 951370989.40 951370989.47 951370989.53 951370989.56 951370989.62 951370989.64 951370989.67 -902433320#1 -902433320#0 902433321#2 45342799#21 45342809#0 951368600#0 951368600#1 -45342797#3 -951368601#1 -951368602#1 -951368602#0 45342835#1 45342835#2 45342809#2 45342809#3 45342809#4 45342809#5 45342809#6 45342839#0 45342839#1 -45342840#2 -45342840#1 -45342840#1.23 -45342840#1.27 -45342840#1.31 -45342840#1.34 -45342840#1.38 45342810#3 45342810#4 45342810#4.21 45342810#5 45342810#6 45342810#6.38 -44740885#16 45342830#1 -973399407#1 951366784 -44740885#14 -44740885#14.36 -44740885#14.40 -44740885#13 -44740885#13.4 -44740885#13.21 -44740885#13.24 -44740885#13.27 -44740885#13.31 -44740885#13.35 -44740885#13.56 -44740885#13.59 -44740885#13.62 -44740885#12 -44740885#12.2 -44740885#12.5 45342829 45342827#1 45342826#1 -44740885#10 45342809#9 45342809#10 45342809#10.44 45342809#11 45342809#12 45342809#14 45342809#15 45342809#16 45342833#0 45342833#1 45342833#2 45342833#3 45342833#4 45342823#1 45342823#2 45342828#1 45342828#1.100 -951384596#1 -951384596#1.24 -951384596#1.31 -951384596#1.36 -951384596#1.46 -951384596#1.54 -951384596#1.60 -951384596#1.72 -951384596#1.107 -951417467 -951417467.14 -951417467.15 -951417467.17 -951417467.18 -951417467.21 -951417467.23 -951417467.24 -951417467.25 -951404491 -951404491.16 -951404491.28 -951404491.40 -951404491.51 -951384599#0 -700249213#7 -700249213#7.47 -700249213#7.56 -700249213#7.59 -700249213#7.61 -700249213#7.65 -700249213#6 -897252869#3 -897252869#2 -897252869#1 -45344315#0 -45344315#0.31 700249213#11 45342808#10 951370965#0 951370965#0.26 951370965#0.30 951370965#0.33 951370965#0.37 951370965#0.40 951370965#1 951370965#1.28 951370965#1.49 -45344314#0 897252864#3 -897252871 -897252870 -45344310#2 -45378639#12 -45378639#12.97 -951404475 -951404475.33 -951404475.43 -951404476 -951404476.16 -951404476.32 -951404476.50 -951404476.59 -951404476.68 -951404476.84 -951404476.93 -951404476.101 -951404476.106 -951404476.113 971495602#7 971495602#7.32 971495602#7.56 971495602#8 971495602#8.24 971495602#8.86 -313316104#6 -45378650#5 -45378650#5.11 45378646#0 45378646#0.20 45378646#1 45378646#2 45378646#2.42 -45378647#3 -45378647#2 -45378647#2.16 -45378647#2.30 908846595#0 908846595#0.61 908846594#0 45378650#0 45378650#0.11 45378650#1 -908846593 -908846593.73 908560901#8 908560901#8.23 908560901#8.56 -313316104#0 -313316082 -45378649#12 896786296#0 -951355298#2 -951355298#2.7 -951355298#2.9 -951355298#2.11 -951355298#2.15 -951355298#2.38 -951355298#2.43 -951355298#1 -951355298#1.5 -951355298#1.10 951355297#2 951355297#2.63 -896786262#5 -896786262#4 -896786262#4.31 -951355295 951354762#1 951354762#1.1 951354762#1.3 951354762#1.20 896786263#1 951354764#1 896786262#1 -896786258#4 -896786258#2 -896786258#2.22 896786255#0 896786255#1 896786255#1.2 896786255#1.52 896786296#4 -896786259#2 -896786259#2.6 -896786259#2.30 -896786259#2.64 -896786259#1 -896786259#1.16 -896786259#1.36 -896786259#1.39 -896786259#1.42 -896786259#1.44 -896786259#1.47 -896786259#1.55 -896786259#1.98 -896786260#6 -896786260#6.19 -909024254 -909024254.11 -909024254.37 -896786266#1 -896786266#1.7 -896786266#1.22 -896786266#1.30 -896786266#0 -896786266#0.9 -896786266#0.23 -896786266#0.37 -896786266#0.58 -896786266#0.78 -896786266#0.96 -45378665#11 -45378665#11.12 -45378665#11.33 -45378665#10 -45378665#8 909024255 909024255.12 909024255.40 909024255.70 896786266#4 896786266#5 -896786260#0 -896786260#0.52 896786257#4 909024248 909024248.50 -45378665#3 -45378665#3.29 -45378665#3.50 -45378665#2 -45378665#2.36 -45378665#1 -45378665#0 -45378665#0.39 -45378665#0.75 -896786300#3 -896786300#3.27 -896893012#1 -896893012#0 -896893012#0.11 -896786303#4 -896786303#4.22 896786301 896786301.58 896786303#6 896786303#6.29 896786302#1 951983592#0 951983592#0.146 951983592#0.152 951983592#0.157 951983592#1 951983592#3 951983592#3.4 951983592#3.8 951983592#3.24 951983592#3.30 -951988579 951988578#1 -951988576#1 -951988576#0 -896786309#2 -896786309#2.4 -896786309#2.65 -896786309#1 -896786309#0 -896786304#1 -896786304#0 -896786304#0.49 -896893001 -896893001.19 -896893001.74 -896786307#7 -896786307#7.13 -896786307#6 -896786307#6.13 -896786307#6.32 -896892993 -896892993.12 -896892993.38 -896892998#1 -896892992 -896892992.49 -896786307#2 -896786307#2.7 -896786307#1 951995496 951995496.11 951995496.15 951995496.18 951995496.22 951995496.29 896786309#5 896786310#3 951983615 951983615.81 951983615.94 -951930617#11 951983614 951983614.77 951983614.85 951983614.95 896786310#6 896786310#6.17 896786310#7 896786310#7.4 896786310#7.13 896786310#7.40 896786310#7.52 896786310#7.60 896786310#7.68 896786310#7.74 951983608#0 951983608#0.28 951983608#0.31 951983608#0.35 951983608#1 951983609#0 951983609#1 951983609#1.23 951983609#1.32 951983609#1.38 951983592#7 -951930617#9 -951988595#2 951988596#0 951988597#0 951988597#1 896786309#13 -951988598#1 -951988598#0 -951988598#0.25 -951988598#0.29 -951988598#0.33 -951988598#0.37 -951988595#0 -951988595#0.6 896786309#16 896786309#16.19 896786309#17 896786309#18 951988603#0 -951988605#1 -951988605#0 951988604#4 -951930622 951930617#4 951930617#5 951930617#6 -951930618#2 -951930618#1 -951930619 -877389028#0 -877389028#0.33 896786310#9 896786310#9.40 896786310#9.54 896786310#9.61 -951983616#2 -951983616#1 -951983616#0 -951983616#0.12 -951983616#0.15 -951983616#0.18 -951983587#3 -951983587#3.2 -951983589#1 -951983589#1.108 -951983589#1.123 -951983589#1.137 896786304#8 896786304#8.15 -877398739#3 -951983590 -896786311#9 951976010#0 -951976011#0 -896786321#1 -896786321#1.3 -896786321#0 -896786321#0.44 -896786321#0.169 -896786311#7 -896786311#6 -896786311#6.24 -896786311#4 -951930671#3 -951930671#3.23 -951930671#2 -951930671#2.8 -951930671#1 -951930671#0 -951930671#0.25 -951930671#0.32 -951930671#0.42 877396172#5 896786320#1 951976009#0 951976009#1 -896786335#7 951976007 -951976006#1 -951976006#0 -896786315#2 -896786316#3 -896786316#2 -896786316#1 -896786316#1.33 -896786314 -951930663#1 951930662#2 951976000#3 -951976001#1 -951976002 -951976000#1 -951975999 951946833#0 -951946816#11 -951946816#10 -951946816#9 951946824 -877395784#12 -877395784#11 -877395784#11.58 -877395784#10 -877395784#10.22 -877395784#10.43 951946815#0 -951946826 951946825#1 -951946816#4 -951946816#2 951946827 951946827.47 951946827.51 951946827.55 951946827.59 -951946789#2 -951946787#6 -951946787#4 -951946787#3 -951946787#2 -951946814#2 951946832 -896786337#16 -951946812#2 -951946812#1 -951946813 951946810#1 951946810#2 -896786337#14 -896786337#14.40 -896786337#14.111 -952365020 -952365021 -951878231#2 -951878231#1 -951878231#1.26 -951878231#0 951951645 -951951643#3 -951951646 -951951642#2 -951951642#1 -951951642#0 -951878263#5 -951878269#15 -951891772#2 -951891774 951891771#2 951930613 -951878269#9 951891767 951891769#0 951891769#0.18 951891769#0.24 951891769#0.29 951891769#0.46 951891769#0.50 -951891768 -950288028#1 -950288028#0 -951878269#4 -951878269#2 -951878269#1 -951878269#1.25 -951878269#1.51 -951878269#1.75 -951878269#1.92 -951887655#4 951887656#0 951878272#1 951878272#2 951878272#4 -951887658 -951887655#0 904196454#1 904196454#1.35 904196454#2 951887661#0 951917022 -951891765#3 -951891763#0 -951891764#0 -951887660#0 877401978#1 951878266#0"/>
</vehicle>
<vehicle id = "veh9" type= "veh_passenger" depart="10815" >
<route edges =" 951370989 951370989.40 951370989.47 951370989.53 951370989.56 951370989.62 951370989.64 951370989.67 -902433320#1 -902433320#0 902433321#2 -45342799#20 -45342797#4 -951368600#1 -951368603#1 951368601#0 951368601#1 -45342797#2 -951370983 -951368602#0 -45342835#0 -45342797#0 -45342834#1 -45342834#0 44740902#8 -45342798#6 45342813#0 45342813#1 -951370984#1 -951370984#0 -45342803#6 -45342803#5 -45342803#4 -45342803#3 -45342803#2 -45342802#2 -45342802#1 -671399056 671399058#2 -44740901#3 -44740901#2 -671399049#1 -671399049#0 -671399051#0 -44740942#1 -44740901#0 -313316089 -951438761 -44740929#5 -951438760#1 -672215964 -672215965#0 -672215965#0.46 -951438759 44740922#2 44740922#2.25 44740953#0 -951438764 -951438764.47 -951438764.119 -313316091#14 -313316091#14.20 -671761561 -45378689#4 45378686#0 45378686#1 45378658#1 45378658#2 45378640#2 -45378683#4 -45378683#4.30 -45378683#4.33 -45378683#4.36 -45378683#4.38 -45378683#4.41 -45378683#4.68 -45378683#4.75 -45378683#4.81 -45378683#4.88 -45378683#3 -45378653#6 -45378685#3 -45378685#2 671178935 45378684#1 -45378655#2 -45378683#1 -45378683#0 -45378683#0.55 -44739167#15 -44739167#15.17 44740949#0 -44740951#1 -44740952 -44740953#6 -44740953#5 -44740953#4 -44739167#12 -44739167#11 44740926#6 -44740928#0 -44740928#0.75 -44740930#6 -44739163#14 102277232#3 44739156#13 44739156#14 44740981#0 44740981#1 44739163#16 -44740926#8 -951358806#1 951358805#0 -951358802 -44740927#11 -44740927#10 -44740927#9 -951358800#1 -951358800#0 44740918#2 44739163#19 -44740919#1 -44740919#0 -951358792 -951358792.26 -951358792.42 -951358792.53 -951358792.66 896892969#18 -971495601#9 -971495601#9.28 44740934#0 -668599375#2 -668599375#2.17 -668599375#1 -668599375#1.9 -668599375#0 -909019783 -909019783.98 -971495601#3 -971495601#1 -971495601#0 -313316086 -44739144#26 -44739144#24 909024272#0 909024272#0.29 909024272#1 909024272#1.30 909024272#1.53 -909024271#0 -909024271#0.59 -909024271#0.78 909024277#2 909024277#2.19 909024277#2.45 -909024274 909024275#1 909024273#3 909024276#0 909024276#0.40 951433468 951433468.11 951433468.23 951433468.31 951433468.39 951433468.48 951433468.57 -896786296#16 -951346848#1 -909024260 -909024260.37 -909024260.93 -909024260.137 -896786280#3 -896786280#2 -896786275#5 -896786275#4 -896786275#3 -896786275#2 -896786275#2.8 896786279#0 896786279#0.44 896786279#1 896786279#2 896786279#2.21 896786269#5 896786269#6 896786269#6.25 896786269#6.71 896786269#7 -896786270#1 -896786270#0 896786271#2 896786271#2.11 -896786295#9 909024279#0 909024279#0.32 909024278#0 909024278#0.46 909024278#0.119 -909024280#0 896786295#12 896786295#12.9 896786295#13 -896786294#5 -896786294#5.6 -896786294#5.10 -896786294#5.13 -896786294#5.16 -896786294#5.19 -896786294#5.22 -896786294#4 -896786294#3 -896786294#3.26 951992347 -896786277#2 -896786277#0 877398366#16 904286386#0 -909024293#1 -909024293#1.14 -909024293#1.28 -909024290 -909024290.32 -877396860#16 -877396860#15 -877396860#14 -877396860#14.23 -896786290#2 904286383#2 -904286380#0 -951992355 904286385#12 896786290#0 -904371470#2 -904371470#1 -904371470#0 904371473#1 904371473#1.24 -904371471 -904371472#0 -904286388#1 -904286388#1.25 -904286388#0 904286386#7 951973455 951973456#1 951973451#1 -951973453#1 -951973454 951973452#2 951973452#3 -904371488#8 -904371488#8.6 -904371488#8.17 -904371488#7 -904371488#7.3 -904371488#7.6 -904371488#6 -904371488#5 -904371488#4 904371486#0 951992348 -904286385#8 -904371487#1 -904371487#1.16 -904371487#0 904371486#2 904371486#4 904371486#4.3 -951973462#3 -951973462#3.3 -951973462#3.5 -951973462#3.8 -951973462#3.10 -951973462#3.15 -951973462#3.18 -951973462#3.21 -951973462#3.25 -951973462#3.31 -951973462#3.34 -951973462#3.38 -951973462#3.47 -951973462#3.53 -951973462#3.58 -951973462#3.69 -951973462#3.74 -951973462#3.79 -671191682#1 -671191681#3 -671191681#3.14 904371493#4 904371493#5 951973474#0 951973474#1 -951973473#0 951973472#1 -904371491 904286385#3 904286385#4 -904371490#4 -904371492#6 -904371456#3 -904371456#2 -904371456#2.22 -904371456#1 -904371456#0 -904371456#0.17 -671191680#0 -671191680#0.38 -671191680#0.44 -671191680#0.48 -671191680#0.53 -671191680#0.58 -671191680#0.63 -671191680#0.76 896786327#1 896786327#1.7 896786327#1.13 896786327#1.48 896786327#1.94 896786327#1.144 896786327#1.150 896786327#1.154 896786327#1.158 896786327#1.163 896786327#1.169 -896786326#0 -896786328#0 -896786328#0.177 -951951638#10 -951951638#10.18 951973434#1 951951639#3 951973426#1 -951951638#8 -951951638#7 -951951638#5 -951951638#4 -951951638#3 -951951638#2 -951946794#1 -951946794#0 951946792#1 896786337#8 896786337#8.8 896786337#10 896786337#10.21 -951887700#20 -951887700#19 -671756019#4 -951961235 951961234#1 951961233#3 951961233#3.5 951961233#3.10 951961233#3.14 951961233#3.19 951961233#4 -951887700#15 -951887700#14 -951961240#3 -951961240#1 -951961245 951891772#0 -951891773 -951891771#0"/>
</vehicle>
<vehicle id = "veh10" type= "veh_passenger" depart="10815" >
<route edges =" 45342801#5 45342801#5.32 902433317#3 951421968#0 951421968#1 951421968#1.20 -951381446#1 951368598#1 -45344271#32 951368595#0 951368595#1 951368595#1.17 951368595#1.34 902433317#8 902433317#8.29 902433317#9 951368594#0 951368594#1 951368594#2 972507120#3 -951369746#4 -951369746#4.24 -951369746#4.27 -951369746#4.29 951369745#0 -951381440 -951369738 -951369738.5 -951369738.18 -951369738.24 -951369738.31 -951379885 -951379885.7 -951379885.13 -951379885.20 -951379885.27 951379886#2 951379886#2.14 951379886#2.19 951379886#2.22 951379886#2.25 951379886#2.28 -951369741#1 -951369741#1.20 -951369741#1.25 -951369741#1.30 -45344273#26 897252876#0 897252876#0.16 897252876#0.57 897252876#1 897252876#1.54 897252876#3 897252876#4 45344320#2 45344320#3 45344320#4 45344320#5 45344320#5.26 45344320#6 45344320#6.8 45344335#8 -45344336#7 -45344336#7.6 -700254525#12 -700254525#12.32 -700254525#11 -700254525#9 -699875131#4 -950400192#1 950235689#1 950400194#2 -699875131#2 -699875131#1 -699875131#0 -897172091#8 -45344326#3 -45344326#2 -45344326#2.15 -902433295#5 -902433295#4 -902433295#4.8 -902433295#4.21 45344330#0 45344330#1 -45344333#0 -45344329#4 -45344329#3 -45344329#2 897252884#0 897252884#1 897252884#1.14 897252884#1.26 897252884#1.51 897252884#1.72 897252884#1.89 897252884#1.109 897252884#1.138 897252884#1.166 897252883#0 897252883#0.24 897252883#1 699875130#3 699875130#3.37 -897172091#0 -45344294#6 -45344294#6.9 -45344294#6.25 -45344294#5 -45344294#5.7 -45344294#4 -45344294#4.7 -45344294#4.18 -45344294#3 897252857 -897252858#1 -897252858#0 -897252850#4 -897252850#3 -897252850#2 -897252850#2.11 -897252850#2.29 -897252850#1 -897252850#1.5 -897252850#0 897252852#3 -951370962 -951370962.12 -951370962.22 -951370962.34 -951370962.43 -951370962.49 -951370962.56 45344304#3 45344304#3.13 -45344286#12 -45344286#11 -45344286#9 -45344286#9.15 -45344286#9.41 -45344286#9.67 -45344286#8 -951384608#1 -951384608#1.59 -951384608#1.63 -951384608#1.67 -951384608#1.69 -951384608#1.73 -951384608#0 -951384608#0.43 -951384608#0.47 -951384608#0.50 -951384608#0.52 -702632123#1 -702632123#1.4 702632122#0 702632122#0.6 702632122#0.10 702632122#0.14 702632122#0.18 702632122#0.49 702632122#0.55 702632122#0.60 702632122#0.66 702632122#0.72 702632122#0.90 702632122#0.93 702632122#0.96 702632122#0.98 702632122#0.100 702632122#0.108 702632122#0.114 702632122#0.117 702632122#0.121 702632122#0.128 702632122#1 702632122#1.17 702632122#1.20 702632122#1.23 702632122#1.27 702632122#1.31 702632122#1.38 -951440588 -951440588.7 -951440588.10 -951440588.13 -951440588.16 -951440588.21 -951440588.26 -951440588.30 -951440588.35 -951440588.39 -951440588.44 -951440588.72 -951440588.82 -951440588.90 -951440588.97 -951440588.103 -951440588.117 -951440588.121 -951440588.124 -951440588.126 -951440588.135 -951440588.140 -951440588.146 -951440588.151 -951440588.155 -951440588.159 -951440588.175 -951440588.198 -951440588.205 -951440588.210 -951440588.231 -951440588.236 -951440588.241 -951440588.245 -45344286#1 -45344286#1.19 -45344286#0 -45344307 -951441961 971495602#10 971495602#10.24 971495602#10.91 971495602#10.136 971495602#10.205 971495602#10.291 971495602#10.337 971495602#10.378 971495602#11 971495602#12 971495602#12.26 971495602#12.77 951442813 951442812#0 -896786335#50 -896786335#49 -896786247#9 -896786247#9.8 -896786247#9.17 -896786247#9.75 -896786247#9.157 -896786247#8 -896786247#7 -896786247#7.2 -908869249#2 -908869249#2.8 -908869249#2.14 -908869249#2.28 -908869246 -908869247 -908869248#2 -908869248#1 -908869248#1.4 -908869248#1.6 -908869248#1.9 -908869248#1.11 -908869248#1.19 -951358827#2 -951358826 -951358826.10 -951358826.13 -951358826.16 -951358826.19 -951358826.36 -951358826.40 -951358826.44 -951358826.49 -896786335#42 -896786335#42.22 -896786335#41 -896786335#40 -896786335#39 -896786335#39.27 -896786335#37 -896786335#36 -896786335#34 -896786335#33 -951354773#3 -951354773#3.20 -951354773#3.23 -951354773#3.26 -951354773#3.28 -951354773#3.30 -951354773#3.32 -951354773#3.34 -951354773#3.38 -951354773#3.40 -951354773#3.43 -951354773#3.45 -951354771#1 -951354771#0 896893028#5 -896786335#29 -896786335#29.17 -896786335#28 -896786335#27 -896786335#27.19 -896786335#26 -896786335#24 -896893004#5 896893002 896893002.42 -896786335#22 -896893013#7 -896893013#7.29 -896893013#7.87 -896893013#6 -896893013#6.15 896893003 -896893004#0 -877388728#11 -877388728#10 -877388728#10.145 -877388728#9 -877388728#7 -877388728#5 -877388728#5.9 -877388728#5.30 -877388728#4 -877388728#4.18 896893019#0 896893019#0.19 896893019#2 896893019#2.13 896893019#2.34 896893019#3 896893025#0 896893025#1 896893025#1.15 896893025#2 896893025#2.35 896893025#4 896893025#4.15 -951998765#1 -951998765#1.24 -951998765#1.30 -896892989#5 877388646#1 877388646#1.12 877388646#1.35 896892987#2 896892987#2.13 896892987#3 -951998764#0 -951998764#0.32 -951998764#0.41 -951998764#0.52 896893025#7 896893025#7.15 896892986#0 951998763 896892985#1 896892985#2 896892985#2.51 896892985#2.104 -896892984#1 -896892984#0 -896892984#0.11 -876614662#4 -876614662#4.12 -876614662#4.55 -876614662#4.113 -876614662#3 -876614662#3.38 -876614662#2 896893025#12 896893025#13 896893025#13.22 -950260765#10 -950260765#8 -951998787#3 -952213575#10 -951998789 -951998789.89 -951998789.91 -951998789.95 -951998789.98 -951998787#0 -951998787#0.10 -951998787#0.14 -951998787#0.18 -951998787#0.21 951998783#2 -951998785#1 -951998790 -896893023#6 -896893023#6.20 -896893023#6.24 -896893023#6.27 -896893023#6.30 -896893023#5 -896893023#5.8 -896893023#4 -896893023#4.15 -896893023#3 -896893023#3.6 -896893023#3.28 -896893023#3.33 -896893023#2 -896893023#2.10 -896893023#2.21 -896893023#2.33 -896893024#0 951988586#1 951988586#1.7 951988585#0 951988585#1 -952213575#0 896893021#10 896893021#11 896893021#12 896893021#12.26 -896893023#0 -896893023#0.13 -877388728#2 -877388728#2.97 -877388728#1 -877388728#1.74 952213570#2 -896893021#7 -896893021#7.63 -896893021#7.71 -896893021#7.74 -896893021#5 -896893021#5.4 -896893021#5.17 -896893021#4 -896893021#4.33 896893020#0 896893020#0.22 896893020#0.45 -952213570#0 -952213570#0.40 -952248230#2 -952248230#1 -951988589 -951988589.30 -951988589.34 -951988589.37 -951988589.41 -951988590#3 -951988592#1 -951988592#1.72 -951988592#1.76 -951988592#1.81 -951988592#1.85 -951988592#1.88 -951988592#1.92 -951988592#1.145 -951988592#1.154 -951988592#1.163 -951988591#1 -951988591#1.3 -951988590#8 -951988594 896786309#11 -951988597#1 -951988599 951988598#1 896786309#14 -951988600#1 -951988600#0 -951988600#0.43 -951988600#0.49 -951988600#0.52 -951988600#0.57 -951988602#0 -951988602#0.11 -951988602#0.36 -951935274#4 -951935274#4.3 -951935274#4.24 -951935274#4.29 -951935274#4.35 -951935274#4.66 -951930627#1 -951930627#0 951988606#0 951988606#1 951988605#1 -951988603#0 -896786309#18 -896786309#17 -951930620 951930617#6 951930617#7 951983611#0 951983611#1 -951983610 951983592#6 951983592#6.2 951983592#6.8 951983592#6.15 951983592#7 951930617#10 951930617#10.11 951930617#10.22 951930617#11 951930617#12 -896786309#7 -896786309#7.27 -896786309#7.77 -896786309#7.88 -896892996#1 -896892996#1.16 -896892996#1.37 -896892996#1.52 -896892996#1.86 896892997#0 896892997#1 -896892998#2 -896892998#2.10 896892993 896892993.48 896892993.74 -896786307#4 -896786307#4.9 896892992 896892992.16 -896892998#0 -896892998#0.14 896892994#1 896892994#1.12 896892994#1.37 -896786307#1 951995496 951995496.11 951995496.15 951995496.18 951995496.22 951995496.29 -896786309#4 -896786309#4.39 -896786309#4.81 896786308#0 896786308#0.23 896786308#1 896786308#1.21 896786308#2 896786308#2.17 896786308#3 896786308#3.37 896893000 896893000.62 896893000.89 896786307#7 896786307#7.3 896786307#9 896786307#9.1 896786307#9.3 896786307#9.8 896786307#9.58 -896893005#0 -896893005#0.12 -896893005#0.57 -896893005#0.74 -896893013#3 -896893013#3.24 896893011#0 896893011#0.60 896893011#1 -896786335#19 -951995495 -909024243#0 -909024244#0 -896786335#17 -896786335#17.2 909024245 909024245.31 909024245.51 909024245.75 909024250#5 -909024246 -909024246.27 -909024246.63 -909024246.70 -909024246.79 -896786335#15 -896786335#14 -896786335#14.27 -896786335#13 -951983587#9 -951983587#8 -951983587#7 896786304#7 896786304#7.11 951983589#1 951983589#1.89 951983589#1.104 951983589#1.119 -951983587#2 877398739#2 877398739#2.30 -951983590 -896786311#9 -896786311#8 -896786311#7 -896786311#6 -896786311#6.24 951983602 951930672#1 -951930673#3 -951930673#3.17 -951930673#2 -951930673#2.6 -951930673#1 -951930673#0 -896786320#1 -896786320#0 -896786316#3 -896786316#2 -951930664#5 -877396172#0 -877396172#0.15 -896786313#2 -896786313#2.55 896786314 -896786316#0 -896786319#5 -896786319#5.26 -896786319#4 -896786319#2 -896786319#1 -896786319#1.31 -896786319#0 -896786319#0.11 -896786335#4 -896786335#4.18 -896786335#3 -896786335#3.10 -896786335#2 -896786335#1 -896786335#1.14 -896786335#0 877395784#17 877395784#17.13 877395784#17.29 877395784#19 951951639#0 951951639#1 951946802 951946795#2 951946795#3 951946795#4 -951946799 951951639#9 951951639#10 951951639#11 951946796#0 951946804 951946804.28 951946804.31 951946804.34 951946804.37 951946795#11 951946795#11.34 951946795#11.40 951946795#11.45 -951887683 -951887684 -951887682#6 951887695#5 671756019#0 -951961251#1 951961247#0 951961248#0 951961248#1 -876509484#6 -876509484#6.3 -876509484#6.8 -876509484#6.12 -876509484#6.15 951878264#0 951878264#0.74 951878264#2 -951878263#3 -951878266#4 -951878266#4.37 -951878266#2 -951878266#1 -951878266#1.39 -951878266#1.47"/>
</vehicle>
<vehicle id = "veh11" type= "veh_passenger" depart="10815" >
<route edges =" -45342801#4 -45342801#3 -45342801#2 -951368604 951368605#1 951368605#2 -903341083#0 -672813677#2 -672813677#1 -672813677#1.10 -672813677#1.22 -672813677#0 -672813677#0.12 -672813677#0.41 951370988 951370988.6 951370988.11 951370988.16 902433317#6 902433317#7 -951368596 45342799#27 45342799#27.15 45342799#27.20 45342799#27.25 45342799#27.36 972507120#0 972507120#2 45342812#0 45342812#1 -45342811#1 -45342811#0 -45342801#0 45342798#2 45342809#4 45342810#0 45342838#0 -671416443#2 -671416443#1 671416441 -671416442#0 671416444#1 671416444#2 45342810#2 -45342840#0 -45342798#0 -45344273#21 -45344273#21.28 -951441770 45342810#5 -973399407#2 -973399407#1 -973399407#0 44740885#14 44740885#14.4 44740885#14.9 -951366785 -45342810#8 -45342810#8.5 -45342810#7 -45342810#7.44 44740885#17 -45344273#14 -45344273#14.32 -45344273#13 45342827#0 45342827#0.77 45342827#0.86 45342827#0.92 45342827#0.101 -45342829 -44740885#11 -44740885#11.4 -44740885#11.8 -45342826#1 -45342826#0 -45342825#0 45342809#11 -45342831#3 -45342831#2 -951417482#2 -951417482#1 -951417482#0 45342805#1 45342805#1.19 951417479 -45342809#15 -45342809#14 45342823#0 45342823#1 45342823#2 -45342828#0 45342825#3 45342825#3.55 45342825#3.65 45342825#3.72 45342825#3.81 45342825#3.88 -45344273#11 -45344273#10 -45344273#10.42 -45344273#9 -45344273#8 -45344273#8.10 -45344273#7 -45344273#7.22 -45344273#6 -45344273#6.40 -45344273#6.59 -951384598#3 -951384597 -951384597.29 -951384597.36 -951384597.43 -45344273#3 -45344273#3.6 -45344273#3.14 -45344273#3.31 -45344273#3.48 -45344273#2 -45344273#2.6 -45344273#2.24 -45344273#1 -45344273#1.7 -45344273#0 -897252881 -45378637#10 -45378637#9 -951404484#10 -951404484#9 -951404484#9.20 -951404484#8 -951404484#6 -951404484#5 -951404484#4 -951404484#4.8 -951404484#4.11 -951404484#4.13 -951404484#4.15 -951404484#3 -951404484#3.5 -951404484#3.9 -951404484#3.14 -951404484#3.25 -951404484#3.32 -951404484#2 -951404484#2.19 -951404484#2.23 -951404484#2.26 -951404484#2.29 -951404476 -951404476.16 -951404476.32 -951404476.50 -951404476.59 -951404476.68 -951404476.84 -951404476.93 -951404476.101 -951404476.106 -951404476.113 971495602#7 971495602#7.32 971495602#7.56 971495602#8 971495602#8.24 971495602#8.86 45340579#6 45340579#7 45340579#7.32 45340579#7.82 45340579#7.134 45340579#7.159 45340579#7.185 45340579#8 45340579#8.28 45340579#8.73 -45378643#7 -45378643#7.12 -45378643#6 -45378643#6.10 -45378643#5 -45378643#5.11 -45378643#4 -45378643#4.5 -45378643#4.18 -45378643#2 -45378643#0 -45378643#0.26 -908560872#1 -908560872#1.53 -908560872#1.77 -951436653 -951436654#0 908560873#1 908560873#3 908560873#3.6 908560873#3.27 -908560866#2 -908560866#2.33 -908560866#2.34 -908560866#1 -908560866#1.1 -908560866#1.2 -908560866#1.4 -908560866#1.15 -908560866#1.32 -908560866#0 -908560866#0.1 -908560866#0.7 -908560866#0.13 -908560866#0.32 -908560874#0 -908560874#0.14 -908560901#17 -908560901#17.7 -908560901#16 -908560901#16.20 -908560901#15 -908560901#14 -908560901#14.9 908560885#0 908560885#0.20 908560885#0.52 908560885#0.79 908560885#2 908560885#2.7 908560885#3 908560885#3.4 908560885#3.9 908560885#3.15 -45378651#5 -45378651#5.26 -951347808#1 -951347808#0 -908560884#0 -45378652#0 -45378652#0.39 45378651#3 908560887#0 908560887#0.10 951436329#0 951436329#0.45 951436329#0.47 951436329#0.49 951436329#0.50 951436329#0.52 951436329#1 -908560882#2 -908560882#2.31 -908560882#2.36 -908560882#2.42 -908560882#2.46 -908560882#2.49 -908560882#2.63 908560881#0 908560881#0.35 908560881#0.70 908560881#0.73 908560881#0.74 908560881#0.76 908560881#0.78 908560881#0.81 908560881#1 908560881#1.17 951347806#0 951347806#0.30 951347806#0.32 951347806#0.34 -951436327 -951436327.3 -951436327.5 -951436327.7 -951436327.22 -951436327.25 -951436327.29 -951436327.34 -951436327.38 -951436327.40 -951436327.51 -951436327.55 -951436327.60 -908560886#1 -908560886#1.3 -908560886#1.6 -908560886#1.11 -908560886#1.25 -908560886#1.40 -908560886#0 -908560886#0.7 -908560888#2 -908560888#2.7 -908560888#2.15 -908560888#2.23 -908560888#2.29 -908560888#2.38 -908560888#2.44 -908560888#2.50 908560867#0 908560867#0.11 908560867#1 -951404468#1 -951404468#1.18 -951404468#1.33 -951404468#1.62 -951404468#1.64 -951404468#1.65 -951404468#1.66 -951404468#1.67 -951404468#1.69 -951404468#1.79 -951404468#1.80 -951404468#1.83 -951404468#1.85 -951404468#1.88 -951404468#1.96 -951404468#1.98 -951404468#1.99 -951404468#1.101 -951404468#1.102 -951404468#1.107 -951404468#1.112 -951404468#1.119 -951404468#1.121 -951404468#1.122 -951404468#1.124 -951404468#1.126 -951404468#1.129 -951404468#1.131 -951404468#1.133 -951404468#1.135 -951404468#1.138 -951404468#1.141 951404467#0 951404467#0.8 951404467#0.12 951404467#0.16 951404467#0.31 951404467#0.34 -951435496#1 -951435496#1.16 -951435496#1.17 -951435496#1.18 -951435496#1.19 -951435496#1.20 -951435496#1.22 -951435496#1.27 -951435496#0 -951435494 -951435494.8 -951435494.19 -951435494.25 -951435494.33 -951435494.43 -951435494.50 -951435494.55 -951435494.60 -951435494.65 -951435500 -951435500.28 -951435500.32 -951435500.35 -951435500.37 -951435500.40 -951435500.48 -951435500.51 -951435500.54 -951435500.57 -951435500.60 -951435500.63 -951435500.67 -951435500.70 -951435500.74 -951435500.78 -951435500.92 -951435500.96 -951435500.100 -951435500.103 -951435500.108 -951435500.117 -951435500.121 -951435500.125 -951435500.137 -951435500.141 -951435500.145 -951435500.148 -313316104#3 -313316104#2 -313316104#2.13 -313316104#2.35 -313316104#2.44 -313316104#1 -313316104#0 -313316082 -45378649#12 -45378649#11 -45378649#11.22 -45378649#10 -45378649#10.20 -45378649#9 -45378649#9.7 -45378649#7 -45378649#7.4 908869241#0 908869241#0.15 908869241#0.77 -908869239 -908869239.8 -908869239.11 -908869239.13 -908869239.15 -908869239.18 951354762#0 951354762#0.9 951354762#0.12 951354762#0.15 951354762#0.18 951354762#0.94 951354762#0.96 951354762#0.97 951354762#0.99 951354762#0.100 951354762#0.102 951354762#0.106 951354762#0.107 951354762#0.109 951354762#0.110 951354762#0.112 951354762#0.127 951354762#0.129 951355295 -896786262#3 -896786262#3.9 -896786262#1 -951354764#1 896786263#2 896786263#2.22 -896786253 -896786253.32 -896786253.95 -896786265#5 -896786265#4 -896786265#4.59 -896786265#2 -896786265#0 896786266#11 896786266#11.13 909024250#0 909024250#1 -951995490#1 -951995490#1.13 -951995490#1.16 -951995490#1.19 -951995490#1.23 -951995490#0 909024253#1 909024253#1.45 909024253#2 909024253#2.16 909024252#1 -896786266#7 -896786266#6 -896786266#6.39 -896786260#0 -896786260#0.52 896786257#4 896786257#5 909024241#0 909024241#0.28 909024240 909024240.30 909024240.47 896786293#4 896786257#7 896786257#7.17 896786257#7.37 896786257#7.44 896786257#7.49 896786257#7.54 -45378665#1 909024239#0 909024239#1 909024239#1.17 -909024237#1 -909024237#1.34 -909024237#1.71 -909024237#1.74 -909024237#1.78 -909024237#1.82 877398366#1 877398366#1.15 877398366#2 877398366#2.36 877398366#3 -951995475#3 -896786288#1 -896786288#0 -896786288#0.20 -896786288#0.42 -951995479#1 896786287#1 896786287#2 -877396033#5 -877396033#5.40 -877396033#4 -877396033#4.15 896786283#0 896786283#0.10 896786283#1 896786283#1.25 896786283#1.45 896786283#2 896786283#3 896786283#3.18 951433465 -876614861#3 -876614861#3.25 -876614861#2 -876614861#1 896786269#2 -671191680#16 -671191680#16.26 -671191680#16.32 -671191680#16.34 -671191680#16.37 -671191680#16.39 -671191680#15 -671191680#15.78 877398366#13 -904286382#4 -904286382#4.34 -904286376 -904286377#0 904286378#1 -904286382#2 -877396860#11 -877396860#10 -877396860#9 -877396860#9.4 -877396860#8 -877396860#7 -877396860#6 -877396860#4 -877396860#3 -951975994 -896786324#1 -896786324#0 -896786324#0.19 -896786324#0.132 -896786324#0.177 -877395784#19 -877395784#17 -877395784#17.8 -877395784#17.24 896786335#0 951976000#0 951976000#1 951976000#2 951976000#2.22 951976000#2.25 951976000#2.28 951976000#2.30 -951930662#2 -951930662#1 -951930662#1.134 -896786312#2 -896786312#2.6 -896786312#2.21 -896786312#1 -896786312#1.17 -896786312#1.24 -896786312#0 -896786312#0.11 -896786312#0.35 -896786312#0.60 -896786312#0.135 -896786311#2 -896786311#1 -896786311#1.19 -896786311#0 -896786311#0.35 951983599 -951935291#3 -951935291#3.17 951930682#0 951930683 -951930681#4 -951930681#4.24 -951930681#3 -951930681#3.5 951983613#0 -951935254#2 -951935254#1 -951935254#0 -951935254#0.6 -951935254#0.15 -951935254#0.25 877396480#3 951935280 951935280.26 951935280.31 951935280.37 951935255#1 951935255#1.24 951935255#1.31 951935255#2 951935255#2.6 877396480#5 877396480#5.5 877396480#5.10 -951935256#2 -951935257#1 -951935291#1 877389028#11 877389028#11.9 -951935289#1 -951935289#0 951935286#1 -951935287 -951930661#3 -951930661#3.14 -951930661#2 -951930661#0 877395784#7 877395784#8 877395784#8.44 877395784#9 877395784#10 877395784#10.31 877395784#10.53 951946825#0 951946825#1 951946816#5 951946816#5.25 951946816#5.29 951946816#5.31 951946816#5.35 951946819#0 951946819#1 -951946818#2 -951946806#8 951951629 951946833#11 951946833#11.92 951946833#11.95 951946833#11.98 951946833#11.101 -951946806#0 -952365020 -952365021 -951878231#2 951868619#0 951868620#0 -951868611#1 -951868611#0 -951951643#4 -951951643#3 -951951646 -951951642#2 -951951642#1 -951951648#1 951951649 951878263#7 951878263#8 951878230#4 -951891772#4 -951961237 951891766#3 951878270#0 951878270#0.33 951878270#0.36 951878270#0.39 951878270#0.42 951878270#2 877401978#0 951887660#0 951887660#2 951887660#3 951887660#5 951887659#1 951891763#2 -951887657 951887655#2 -951887654#0 700825962#4 700825962#4.25 700825962#4.106 700825962#4.130 904196454#0 951887655#0 951887658 951878272#5 904196454#2 951887661#0 951887661#1 951887661#2 951887661#3 951878266#0"/>
</vehicle>
<vehicle id = "veh12" type= "veh_passenger" depart="14420" >
[...]
</vehicle>
<vehicle id = "veh18" type= "veh_passenger" depart="21630" >
<route edges =" 951370989 951370989.40 951370989.47 951370989.53 951370989.56 951370989.62 951370989.64 951370989.67 -902433320#1 -902433320#0 902433321#2 45342799#21 45342809#0 45342809#1 45342809#2 45342809#3 45342798#3 -45342837 -45342836#0 45342818#2 45342818#3 45342814#5 45342809#8 -44740885#9 -44740885#9.34 -44740885#8 -45342841 -45342802#1 671399046#2 671399046#2.23 -671399054#1 671399053 -44740885#4 -44740885#3 -44740901#6 -44740891#4 974189220#1 44740896#3 -44740959#1 -44740959#0 -44740895#2 -44740895#2.69 44740972#0 951417475#0 951417475#1 -671399049#1 -671399049#0 -671399051#0 -44740942#1 -44740942#0 974189220#5 902433296 44740967#0 44740929#7 44740929#8 -44740960#1 44740962#0 44740962#1 44740962#2 -44740930#15 -44740930#14 -44740930#13 -44740930#12 -44740930#11 -44740930#10 44740923#0 44740923#1 44740926#1 44740926#2 -951358804 -44740955#1 -44740955#0 -44740925#2 44740926#5 44740926#6 44740928#1 -951358805#1 -951358802 44740927#12 44740927#13 44739167#12 -44740953#3 44740940#0 44740945#0 44740946#0 44740946#1 45378682#0 45378682#0.48 45378682#1 -45378689#0 45378683#1 45378655#2 45378655#3 -45378685#2 -45378685#1 45378654#0 45378654#1 45378657#4 -313316091#2 -313316091#2.44 -44740931#1 -44740919#0 -951358792 -951358792.26 -951358792.42 -951358792.53 -951358792.66 896892969#18 45340579#18 45340579#18.164 45340579#19 45340579#19.12 45340579#19.84 909019791#0 -909019790#1 -909019789#2 909019788 909019791#2 -44740916#4 -44740916#4.29 -909019776#1 -909019776#1.34 909019774 909019774.53 909019774.58 909019774.63 44740910#3 44740910#4 -44740933#2 909019787 -44740932#4 -44740932#3 44740916#8 44740916#9 44740916#9.64 -909019783 -909019783.98 -971495601#3 -44740910#8 -44740910#7 -44740910#6 44740932#6 44740932#7 313316100#7 313316100#8 313316100#8.72 -971495601#0 -313316086 -44739144#26 -903953334#9 -903953334#9.24 -903953334#9.50 -903953334#9.58 -903953334#8 -903953334#8.6 -903953334#8.17 -903953334#8.53 -903953325#4 -903953325#3 -903953325#2 -903953325#2.18 -909778547#2 -909778547#0 -44739144#19 -44739144#19.14 -44739144#18 -877398366#21 -877398366#20 -877398366#19 896786289#2 896786289#3 -896786294#8 -909024279#5 -909024279#5.21 -909024280#1 -909024280#1.18 909024278#1 909024278#1.42 -896786294#6 -896786294#5 -896786294#5.6 -896786294#5.10 -896786294#5.13 -896786294#5.16 -896786294#5.19 -896786294#5.22 -896786294#4 -896786294#3 -896786294#3.26 951992347 896786277#3 -909024256#0 -909024256#0.28 -896786279#4 -896786279#4.27 -896786279#3 -896786279#3.22 -896786269#4 896786267#1 896786267#1.28 896786267#2 877398366#14 877398366#14.18 877398366#15 877398366#15.16 -896786290#5 -896786290#4 -896786290#4.18 -896786290#3 -896786290#2 904286383#2 904286383#3 904286383#3.17 904286383#4 904286382#1 -877396860#11 -671191680#13 -671191680#11 -904286375#3 904286374 904286381#2 904286381#3 904286381#3.4 904286381#3.18 -904286372#1 -904286375#0 904286385#12 -951992356 -951992356.18 -951992356.27 -951992356.36 904371488#1 904371488#2 904371488#2.33 904371488#2.41 904371488#2.44 904371486#0 951992348 -904286385#8 -904371487#1 -904371487#1.16 -904371489#2 -904371489#1 -904371489#1.14 -904371489#1.36 -904371489#1.40 -904371489#1.44 671191682#0 671191682#1 671191682#2 904371493#3 -671191681#2 -951973437#1 -951973438#1 -951973438#1.17 -951973438#1.20 -951973438#1.25 -951973438#1.31 -951973439 951973436#2 -671191681#0 904286385#1 904286385#2 904286385#3 -951973457 904371492#5 -904371456#3 -904371456#2 -904371456#2.22 -904371456#1 -904371456#0 -904371456#0.17 -671191680#0 -671191680#0.38 -671191680#0.44 -671191680#0.48 -671191680#0.53 -671191680#0.58 -671191680#0.63 -671191680#0.76 -896786327#0 877395784#22 877395784#22.56 877395784#23 -952002224#7 -952002224#7.17 -952002224#7.71 -951973426#2 951951638#9 951973434#1 951951639#3 951951639#4 -951973432#1 -951973432#0 -952002224#5 -952002224#5.5 -952002224#4 -952002224#4.27 951946798#0 -951951638#3 952000398 951951639#13 -951946794#0 951946792#1 896786337#8 896786337#8.8 896786337#10 896786337#10.21 -951887700#20 -951887700#19 -951887686#1 -951887688#2 951887690 -951887700#17 -951887700#17.17 -951887700#16 -951961233#4 951961244 951961244.37 951961244.40 951961244.43 951961244.47 -951961242#1 -951961242#0 -951961240#1 -951961245 951891772#0 -951891773 -951891771#0"/>
</vehicle>
<vehicle id = "veh19" type= "veh_passenger" depart="21630" >
<route edges =" 45342801#5 45342801#5.32 902433317#3 951421968#0 951421968#1 951421968#1.20 -951381446#1 -951381446#0 951368595#1 951368595#1.17 951368595#1.34 902433317#8 902433317#8.29 902433317#9 951368594#0 951368594#1 -951369743#1 -951369743#1.33 -951369743#1.39 -951369743#0 -951369743#0.6 951369744#2 951369744#2.22 951369744#2.31 951369744#3 951369744#3.5 951369745#2 951369745#2.2 951369745#2.14 951369745#2.20 951369745#2.26 -951369735 -951369735.5 -951369735.10 -951369735.15 -951369735.24 -951369735.30 -951369735.36 -951369740#1 -951369740#1.11 -951369740#1.14 -951369740#1.18 -951369740#1.22 -951369740#1.28 -951369740#1.32 -951369740#1.36 -951369740#1.40 -951369740#1.44 -951369740#1.64 -951369740#0 -951369740#0.4 -951369740#0.11 45344273#27 45344273#27.17 45344273#28 45344273#29 45344273#29.12 45344273#29.34 -950455048#5 -950455048#3 -950455048#3.28 -950455048#1 -950455048#1.49 -950455048#1.67 -950455048#1.78 950455051#0 950455051#0.11 950455051#0.26 950455051#0.42 950455051#1 950455051#1.2 -950235703#2 -950235703#2.9 950455053 950235692#2 950235697#0 950732876 950235699#3 950235699#4 950235699#5 950238177#2 950238177#2.39 950238177#2.59 950780326#0 950780326#0.30 950780326#0.63 950780326#1 950780326#1.17 950780326#1.24 950780326#1.29 950780326#1.45 950780326#1.86 950780326#2 45344278#3 -950238182#3 950238181#3 950238181#3.17 950238181#3.25 950238181#3.34 950238181#3.40 950238181#3.49 -950238180#0 45344278#5 -45344271#15 -45344271#13 -45344271#13.24 950235723#0 -950806860#0 -950806860#0.20 -950806860#0.30 -950806860#0.40 -950806860#0.51 -950806860#0.58 -950806860#0.64 -950806860#0.74 -950806860#0.80 -950806860#0.86 -950235722#1 -950235722#1.25 -950235722#1.38 -950235722#1.43 -950235722#1.46 -950235722#0 -950235722#0.6 -950235722#0.12 -950806855#3 -45344277#1 -950235726#1 -950235725#0 -45344276#4 -45344276#3 -45344276#2 903373125#0 950759345 950759345.20 950759345.25 950759345.28 950759345.33 950759345.37 950759345.41 950759345.45 -903373124#0 950235713#0 950759344 950759344.25 950759344.36 950759344.47 -950235714#0 -950235714#0.32 -45344271#22 -45344271#22.29 -45344271#21 897252886#0 897252886#0.21 897252886#0.44 -950235707#1 -950235707#0 950755151 950755151.35 950755151.45 950755151.55 -45344271#25 -950757963#1 -950757964#2 -950757964#1 -950757964#0 -950235711#2 -950757969#5 950757968 951132942#4 -950757967 -950757969#3 950757966#0 950757966#1 951132942#7 951132942#7.34 -950235713#4 -950235713#4.13 -950235713#4.16 -950235713#4.19 -950235713#4.23 -950757960#0 -902433292#8 -902433292#7 950759350#2 950757958#2 -950759349#0 -950759349#0.28 -902433292#5 -902433292#4 -902433292#3 -902433292#2 -902433292#1 -902433292#1.15 -902822419#8 -902822419#7 -902822419#6 -902822419#6.19 -902822419#6.57 950872171#1 950872171#1.7 950872171#1.16 -950806849#0 -950806849#0.8 -950806849#0.17 -950235727#7 -950235727#6 -950806854 950806855#1 950806855#1.3 950806855#1.8 950235725#2 -950806857 45344277#3 950806851 950806851.32 950806851.35 950806851.38 950806851.40 950806851.42 950806852#1 950235725#5 950806853 -950235727#1 -950235727#1.45 -950235727#0 950641816#6 950641816#7 950641816#8 950641816#9 950641816#10 45344271#10 897252880#7 897252880#7.68 897252880#8 897252880#8.48 950238178#0 950238178#1 950755158 950755158.30 950755158.35 950755158.39 950755158.45 950238179#1 45344273#38 45344273#38.38 45344273#38.50 45344273#38.62 -950235700#3 -950235700#2 -950235697#3 950235695#1 950235702 950732875#1 950235694#2 950235694#3 950235694#4 950235694#4.8 950235694#4.19 950235694#4.29 950235694#4.38 950235694#4.48 950235694#4.103 950235694#4.115 950235694#4.119 950235694#4.123 950235694#4.127 951381436 951381436.26 951381436.34 951381436.39 951381436.45 -897252875#0 -897252875#0.4 -897252875#0.15 -897252875#0.35 -45344336#9 -45344336#9.10 -45344336#9.61 -45344336#9.126 -45344336#9.147 -950455054 45344320#6 45344320#6.8 -45344335#7 950400189 -897172091#12 -897172091#10 -897172091#9 -897172091#8 -45344326#3 45344331#0 952274660 952274660.29 952274660.31 952274660.34 -951404486#0 45344333#2 45344331#2 45344331#3 -45344327#0 -45344329#6 -45344329#5 -45344329#4 -902433295#2 897252876#9 45344324#0 45344324#1 45344324#1.27 45344324#1.42 45344324#1.62 45344324#1.71 45344324#1.113 -897172091#3 -897172091#1 -897172091#0 -45344296#0 -45344296#0.92 -45344296#0.150 -901885452#0 -897252884#0 -45344329#1 951370979#0 -951440590 45344291#2 45344291#3 45344291#3.27 45344291#3.54 45344291#3.63 45344291#3.68 45344291#3.139 -951370958 -45344288#0 -45344288#0.29 -45344294#3 897252857 -897252858#1 -897252858#0 -897252850#4 -951381432#1 -951381432#1.22 -951381432#1.25 -951381432#1.27 951441775 951441775.22 951441775.36 951441775.44 951441775.54 951441775.68 950389247#1 950389247#1.24 -950389246 -950389246.5 -950389246.12 -950389246.18 -950389249#2 -950389249#2.2 -950389249#1 -950389249#1.5 -950389249#1.8 -950389249#1.11 -950389249#1.14 -950389249#1.33 950389248 950389248.21 950389248.25 950389248.29 950389248.34 950389248.56 950389248.59 950389248.62 950389248.66 950389249#4 950389249#4.2 950389249#4.6 -897252850#0 -897252853 45344304#2 45344304#2.14 45344304#3 45344304#3.13 -45344286#12 -45344286#11 951404497 951404497.20 951404497.26 951404497.33 951404497.38 951404497.43 -897252855#0 -45344287#0 -45344287#0.5 -45344287#0.14 -45344286#7 -702632122#4 -702632122#4.41 -702632122#4.57 -702632122#4.62 -702632122#4.67 -702632122#4.71 -702632122#4.73 -702632122#4.77 -702632122#3 -951384601#1 951384600 -702632123#2 -702632123#1 -702632123#1.4 -951404495 -951384610#0 45344272#12 45344272#13 45344272#13.4 45344272#13.35 45344298 896892974 971495602#11 971495602#12 971495602#12.26 971495602#12.77 951442813 951442812#0 -896786335#50 -896786335#49 -896786335#48 -896786335#48.15 -896786335#47 -896786335#46 -896786335#44 -896786335#44.9 -896786335#44.71 -896786335#43 -896786335#42 -896786335#42.22 -896786335#41 -896786335#40 -896786335#39 -896786335#39.27 -908869251 -908869251.5 -908869251.7 -908869251.10 -908869251.12 -908869251.30 -908869251.35 -908869251.40 -908869251.44 -908869251.48 -908869251.66 -908869251.70 -908869251.73 -908869251.76 -908869251.78 896786248#1 896786248#1.30 896786248#1.43 -896786335#34 -908869252#3 -908869252#3.7 -908869252#3.13 -908869252#3.35 -908869252#3.57 -908869252#3.88 -908869252#3.90 -908869252#3.94 -908869252#1 -908869252#0 -908869252#0.17 -896786335#30 -896786335#29 -896786335#29.17 -896893017#1 -896893018#1 -896893018#1.27 -896893018#0 877388728#14 -896786335#24 -896786335#23 -896786335#23.44 -896786335#22 -896786335#21 -896786335#21.41 -896893011#1 -896893012#6 -896893012#6.12 -896893012#5 -896893012#5.11 -896893012#4 -896893012#3 -896893012#2 -896893012#2.9 896786300#3 896786300#3.17 -896786335#14 -896786335#14.27 -896786335#13 -951983587#9 -951983587#8 -951983587#7 -951983587#6 -951983620#1 -951983620#0 951983592#1 951983592#3 951983592#3.4 951983592#3.8 951983592#3.24 951983592#3.30 951983592#4 951983592#4.48 951983592#4.59 951983592#4.68 951983592#5 951983610 951983612 951983612.19 951983612.23 951983612.27 951983608#0 951983608#0.28 951983608#0.31 951983608#0.35 951983608#1 951983608#2 951930618#2 -951930617#6 951930620 -896786309#16 -896786309#16.7 -951988600#1 -951988607#3 951935274#6 951988604#0 951988604#1 951988604#2 951988604#2.18 951988604#2.21 951988604#2.24 -951930625#1 -951930625#0 -951930625#0.6 -951930625#0.13 -951930625#0.21 -951930625#0.26 -951930625#0.32 -951930616#10 -951930616#10.3 -951930616#10.6 -951930616#10.9 -951930616#10.13 -951930616#10.15 -951930616#10.18 -951930616#10.26 -951930616#10.29 -951930616#10.31 -951930616#10.35 -951930616#9 951930634#0 951930679#0 951930679#0.32 951930679#0.34 951930679#0.37 951930679#0.41 951930679#1 951930679#1.53 951930679#1.56 951930679#1.59 951930679#2 951930635#0 896786309#28 896786309#28.32 896786309#28.35 896786309#28.39 896786309#28.41 -951930617#1 -951930617#1.4 -951930617#0 -896786309#24 -896786309#24.6 -896786309#22 -896786309#22.8 -896786309#20 -951930621 -951930617#4 951930618#0 951930618#0.26 951930618#0.29 951930618#0.32 951930618#0.35 -951930619 877389028#1 877389028#1.12 877389028#1.31 -896786310#13 -896786310#12 -896786310#12.9 -896786310#10 -896786310#10.4 -896786310#10.15 -896786310#10.32 -951983616#2 951983617#0 951983617#0.43 877398739#1 -951983587#1 -951983587#0 -951983587#0.39 -951983587#0.45 -951983587#0.51 -951983587#0.56 951976010#0 951976010#1 -896786335#9 -896786335#8 -896786335#8.39 -951976009#1 -951976009#0 -896786320#1 -877396172#5 -877396172#3 951976013#0 951930665#0 951930667 -951930666#0 -951930666#0.43 -951930666#0.46 -951930666#0.48 -951930666#0.51 951930665#2 951930664#4 951930664#5 896786316#2 896786317#0 896786317#1 896786317#1.17 -896786319#4 896786318 896786318.40 -896786319#0 -896786319#0.11 -896786335#4 -896786335#4.18 -896786335#3 -896786335#3.10 -896786335#2 951976001#0 951976001#1 -951976000#3 -951930662#2 -951930663#0 877395784#12 -951946824 -951946822 -951946821#1 -951946821#0 -951946821#0.2 -951946821#0.6 -951946821#0.9 951946818#3 951946818#3.2 951946818#3.6 -951946817#3 -951946817#2 -951946817#1 -951946817#0 877395784#14 877395784#14.58 951975999 -951976000#0 -896786335#0 -951946803#2 -951946803#1 -951946803#1.55 -951946803#1.59 -951946803#1.61 -951946803#1.64 951946795#1 951946795#2 -951946801 951951639#6 951951639#7 -951973430#1 -951951638#4 951946798#1 951946798#2 951946795#7 951946795#9 951946795#10 951946795#11 951946795#11.34 951946795#11.40 951946795#11.45 -951887683 -951887684 -951887682#6 951887695#5 671756019#0 -951961251#1 -951961251#0 876509484#8 876509484#8.5 951961233#0 951961233#0.22 951961233#0.27 951961233#0.32 951961233#0.37 951961233#1 -951878265#2 -951878265#1 -951878266#5 -951878266#5.22 -951878266#5.29 -951878266#5.37 -951878266#4 -951878266#4.37 -951878266#2 -951878266#1 -951878266#1.39 -951878266#1.47"/>
</vehicle>
<vehicle id = "veh20" type= "veh_passenger" depart="21630" >
<route edges =" -45342801#4 45342799#23 45342799#25 45342799#25.7 45342799#25.22 45342799#26 45342799#27 45342799#27.15 45342799#27.20 45342799#27.25 45342799#27.36 972507120#0 972507120#2 45342812#0 45342812#1 45342811#2 45342811#2.66 -45344273#22 -45344273#22.6 -45344273#22.18 -45344273#22.35 -45344273#21 -45344273#21.28 -45344273#19 -45344273#18 -45344273#18.17 45344321#0 45344321#1 897252876#7 951404487 951404487.59 951404487.67 951404487.76 951404487.86 951404487.92 951404487.99 951404487.110 951404487.135 951404487.151 951404487.162 951404487.176 951404487.182 951404487.187 951404487.193 -45344273#16 -45344273#16.5 -45344273#16.30 -45344273#14 -45344273#14.32 -45344273#13 -45344273#12 -45344273#11 -45344273#10 -45344273#10.42 -45344273#9 -45344273#8 -45344273#8.10 -45344273#7 -45344273#7.22 -45344273#6 -45344273#6.40 -45344273#6.59 -951384598#3 -951384597 -951384597.29 -951384597.36 -951384597.43 -45344273#3 -45344273#3.6 -45344273#3.14 -45344273#3.31 -45344273#3.48 -45344273#2 -45344273#2.6 -45344273#2.24 -951404493 -951404493.17 -951404493.21 -951404493.24 -951404493.26 -951404493.29 -951404493.32 -951404493.38 -951404493.57 -951404493.66 -951404493.74 700249212#1 951404492 700249213#11 -45342808#9 -45342808#8 -45342808#7 -45342808#7.16 -45344273#0 -897252881 -45378637#10 45378639#7 -951404483#2 -951404484#9 -951404484#9.20 -951404484#8 -951404484#6 951404482 45378639#9 -951404481 -951404484#4 -951404484#4.8 -951404484#4.11 -951404484#4.13 -951404484#4.15 951404480 951404480.8 951404480.10 951404480.12 951404480.16 951404480.58 45378639#11 45378639#12 45378639#12.8 -45344310#1 -45344310#0 -45344310#0.10 -45344310#0.18 -45344310#0.30 -45344310#0.41 -45344310#0.52 971495602#8 971495602#8.24 971495602#8.86 -313316104#6 -313316104#5 -313316104#5.12 -313316104#5.27 -313316104#5.46 -313316104#4 -313316104#4.4 -313316104#4.18 -313316104#4.31 -313316104#4.41 -313316104#4.56 -313316104#3 -951347804#2 -951347804#2.16 -951347804#2.19 -951347804#2.23 -951347804#2.26 -951347804#2.30 -951347804#2.33 -951347804#2.35 -951347804#0 -951347804#0.1 -951347804#0.6 -951347804#0.20 -951347804#0.28 -951347804#0.33 -951347804#0.39 45378651#1 45378651#2 45378651#2.13 45378651#3 45378651#4 45378651#5 45378651#5.47 908560882#0 951436655 951436655.55 908560868#1 908560868#1.11 908560868#1.28 908560869#1 908560869#1.23 908560869#1.32 908560869#1.55 908560869#1.70 -908560871 -908560871.24 -908560871.54 -45378651#13 -45378651#13.14 -45378651#13.26 -908560872#1 -908560872#1.53 -908560872#1.77 -951436653 951436654#1 951436654#1.3 951436654#1.11 951436654#1.18 951436654#1.26 951436654#1.35 951436654#1.42 951436654#1.51 951436654#1.60 951436654#1.64 951436654#1.66 951436654#1.68 951436654#1.70 951436654#1.74 951436654#1.76 951436654#1.78 951436654#1.80 951436654#1.93 951436654#1.99 951436654#1.104 951436654#1.111 -45378651#10 -45378651#9 -45378651#9.1 -45378651#8 -45378651#8.10 -908560876 908560877#1 908560877#1.4 908560877#1.13 -908560884#2 -908560884#1 -908560884#1.10 -908560884#0 45378652#1 45378652#1.5 -908560901#10 -908560901#9 -908560901#9.4 -908560901#9.59 -313316104#0 -313316082 -45378649#12 896786296#0 -951355298#2 -951355298#2.7 -951355298#2.9 -951355298#2.11 -951355298#2.15 -951355298#2.38 -951355298#2.43 951355292 -45378649#9 -45378649#9.7 -45378649#7 -45378649#7.4 -45378649#5 -45378649#5.24 -45378649#5.57 -45378649#5.68 -45378649#3 -45378649#3.8 -896786265#8 -896786265#7 -896786265#7.11 -896786265#6 -896786265#6.26 -896786265#5 -951358820 -951358820.17 -951358820.20 -951358820.22 -951358820.25 -951358820.28 -951358820.45 -951358820.48 -951358820.50 -951358820.53 -951358821#1 -951358822#1 -951358822#1.32 -951358822#1.34 -951358822#1.36 -951358822#1.37 -951358822#1.39 -951358822#1.41 -951358822#1.61 -951358822#1.65 -951358822#1.67 -951358822#1.69 -951358822#1.71 -951358822#1.74 -951358822#1.88 -951358822#0 -951358822#0.4 -951358822#0.8 -951358822#0.13 -896786265#2 -951995492#1 -951995492#0 -951995491#0 -896786266#12 909024250#0 909024250#1 909024250#2 909024250#4 909024250#5 909024250#6 909024239#0 909024239#1 909024239#1.17 909024239#2 909024239#2.40 -951983585 -951975994 -896786325#2 -896786328#1 -896786328#0 -896786328#0.177 -877395784#20 -877395784#19 -951946816#15 -951946816#14 -951946816#13 -951946816#13.3 -951946816#13.8 -951946816#12 -951946833#0 -877395784#14 -877395784#14.13 951946817#0 951946817#1 951946817#2 -951951641 951946833#3 951946833#4 951975993 951951631#1 951951635#2 -951946818#0 951946833#9 951946833#9.22 951946833#11 951946833#11.92 951946833#11.95 951946833#11.98 951946833#11.101 -951946806#0 -952365020 -952365021 -951878231#2 -951951643#6 951951644#0 -951951642#4 -951951642#3 -951951642#3.15 -951951642#3.18 -951951642#3.20 -951951642#3.23 -951951642#3.36 -951951642#3.39 -951951642#3.41 -951951642#3.43 951951646 -951951643#2 -951951643#1 951951648#0 951951648#1 -951951642#0 -951878263#5 -951878269#15 -951878269#14 -951878269#13 -951878269#12 -951878269#10 -951878269#9 -951878269#7 -951891764#4 -951887656#2 -951891765#0 -951878269#5 -951878269#4 951878272#0 951878272#1 951887654#2 951887654#3 -951891764#1 -951891764#0 -951887660#0 877401978#1 951878266#0"/>
</vehicle>
</routes>
