<?xml version="1.0" encoding="UTF-8"?>
<routes xmlns:xsi="http: // www.w3.org/2001/XMLSchema-instance" xsi:noNamespaceSchemaLocation="http: // sumo.dlr.de/xsd/routes_file.xsd">
<vType id="veh_passenger" vClass="passenger"/>

<vehicle id = "veh0" type= "veh_passenger" depart="0" >
<route edges =" -813722269#3 -813722269#3.7 -813722269#3.48 -813722269#3.84 -813722269#3.86 620762213#0 620762213#0.9 620762213#0.88 620762212#0 620762212#0.8 620762212#0.52 6343949#6 6343949#7 6343949#8 6343949#8.52 6343949#10 6343949#10.49 6343949#12 6343949#12.47 -525497324#3 -525497324#2 243349944#4 243349944#4.53 243349944#6 243349944#7 -460419011#3 -460419011#2 6464126#3 6464126#3.49 6464126#5 -460419028#3 243349338#0 243349338#0.18 243349338#1 243349338#2 243349338#3 243349338#3.49 243349338#5"/>
</vehicle>
<vehicle id = "veh1" type= "veh_passenger" depart="0" >
<route edges =" -6457203#16 -6457203#16.59 975126260#0 975126260#0.49 -6505136#16 6368504#5 6368504#5.48 6368504#7 6368504#7.50 -6513783#8 -6513783#7 37657905#3 37657905#3.48 37657905#5 37657905#5.10 37657905#5.46 37657905#7 37657905#7.49 476409329 -6383185#5 6384373#1 6384373#2 6384373#2.45 6384373#2.56 -65588097#1 -65588097#1.119 337818330 6463035#0 6463035#0.14 6463035#0.38 6463035#3 -6495801#0 -185485132#12 -185485132#12.125 -185485132#11 -185485132#11.16 243349945#9 243349945#9.50 -6494975#8 -6494975#7 -6494975#6 -6494975#6.81 256994205#3 428246847#0 428246847#0.8 428246847#0.22 6386110#0 6386110#0.16 6386110#0.25 6386110#0.55 -243349338#6 -243349338#6.14"/>
</vehicle>
<vehicle id = "veh2" type= "veh_passenger" depart="0" >
<route edges =" -6522868 -6403883#7 -6403883#6 -6403883#5 -6403883#4 -6403883#3 -6403883#2 158882505#7 158882505#8 8111709#0 8111709#0.47 8111709#2 8111709#2.49 8111709#4 8111709#4.49 -6513783#5 6384359#8 6384359#9 6384359#9.26 -6381494#3 -6381494#3.43 6463017#6 6463017#6.48 -6386837#0 337739268 337739268.124 337739267#0 337818462 337818462.3 337818462.6 337739271#1 337739271#1.6 337739269#0 -460419011#4 243349944#8 -801995081#5 -801995081#5.197 -801995081#5.209 -801995081#2 -801995081#2.109 -801995081#0 243339793#4 243339793#5 243339793#6 243339793#6.50 243339793#6.74 -22917112 -185485118#1 6514312#0 6514312#0.70 -6523501#6 -6523501#6.6 185485127#1 -6494970#4 -6494970#4.172 -6494970#2 -6494970#2.4 -6494970#2.100 6358721#0 6358721#0.9 6415147#4 6415147#5 6415147#6 6351349#2 6351349#3 6351349#3.107 6351349#5 -185483733 -6414318#4 -157167355#0"/>
</vehicle>
<vehicle id = "veh3" type= "veh_passenger" depart="0" >
<route edges =" 817434294 817434294.10 817434294.36 817434294.44 817434294.63 817434294.119 6343949#0 6343949#0.7 6343949#0.86 6343949#3 6343949#3.9 6343949#3.49 620762212#3 6430729#6 6430729#6.47 6430729#6.48 6430729#9 6430729#9.48 6430729#11 6430729#11.51 6430729#13 6430729#13.48 6430729#15 6430729#15.48 6430729#17 6430729#17.51 -620762224#0 -66558981#7 -66558981#7.65 -66558981#7.83 -66558981#7.105 -66558981#7.123 -66558981#2 -66558981#2.131 -66558981#2.234 525497323#2 525497323#2.81 -481291488#2 -481291488#1 -481291488#0 -481291488#0.69 -481291488#0.82 -6447971#10 -6447971#10.11 -6447971#9 -6447971#8 -6447971#7 -6447971#6 -6447971#5 -6447971#4 169917351#6 169917351#7 169917351#7.49 169917351#9 169917351#9.48 169917351#9.87 169917351#12 169917351#12.9 169917351#12.42 169917351#12.90 -6360239#3 -6360239#3.6 -6360239#3.69 -6360239#3.102 6487445#0 6487445#0.8 6415147#0 6415147#0.61 6449462#3 6449462#3.7 6449462#3.50 6449462#3.60 6449462#3.72 6449462#3.87 795669782#0 795669782#0.54 795669782#2 6371720#2 6371720#3 157167355#0"/>
</vehicle>
<vehicle id = "veh4" type= "veh_passenger" depart="3605" >
<route edges =" -813722269#3 -813722269#3.7 -813722269#3.48 -813722269#3.84 -813722269#3.86 620762213#0 620762213#0.9 620762213#0.88 620762212#0 620762212#0.8 620762212#0.52 6343949#6 -65588100#1 -65588100#1.65 57883609#3 57883609#3.43 57883609#3.52 57883609#3.60 57883609#3.80 179551719 179551719.37 179551719.46 179551719.51 179551719.88 179551719.93 179551719.97 739843348#0 739843348#0.4 739843348#0.9 620762218#0 620762218#0.55 620762218#0.66 620762218#0.68 620762218#0.81 -6440348#7 -6440348#7.9 243349944#0 243349944#0.4 243349944#0.20 243349944#0.49 -525497324#1 -525497324#0 -6512920#11 -6512920#11.12 -6512920#11.49 -6512920#11.62 -6512920#11.76 -6512920#11.147 293775902#12 293775902#12.3 293775902#12.50 6481166#12 525497323#2 525497323#2.81 40416132#0 40416132#0.19 40416132#1 40416132#1.90 -801995081#2 -801995081#2.109 6464126#5 460419028#4 460419028#5 460419028#5.67 460419028#5.79 460419028#5.105 353690153#0 353690153#0.8 353690153#0.25 353690153#0.87 6360256#0 6360256#0.104 243339793#6 243339793#6.50 243339793#6.74 243339793#9 243339793#9.48 185485132#3 185485132#3.10 -6464126#10 -6464126#10.50 -6464126#8 -6464126#8.50 6360256#2 6360256#2.128 243349338#1 243349338#2 243349338#3 243349338#3.49 243349338#5"/>
</vehicle>
<vehicle id = "veh5" type= "veh_passenger" depart="3605" >
<route edges =" -6457203#16 -6457203#16.59 975126260#0 975126260#0.49 6505136#17 6505136#17.194 6505136#17.197 6339665#0 6339665#0.2 6339665#0.6 6339665#0.46 -37657904 504279347 504279347.177 6363153#3 6363153#3.40 6363153#3.50 6363153#3.56 392673856 392673856.85 6434058#0 6434058#0.15 6434058#0.33 6434058#0.56 6434058#0.73 6434058#0.96 6434058#0.116 6434058#0.128 6434058#1 481291021#0 481291021#1 -6383185#18 -6383185#18.50 -6383185#18.92 -481291020#5 -481291020#5.43 -481291020#5.65 -481291020#2 -481291020#2.33 -481291020#2.45 -481291018 481291019#0 481291019#0.47 481291017#0 481291017#0.46 -6383185#13 -603522176#9 -603522176#9.44 -603522176#7 -603522176#7.43 -638348588#0 -263666867#2 -263666867#2.43 -263666867#2.72 6381494#15 -603522176#3 -603522176#3.50 -6513783#10 -6513783#9 -6513783#8 -6513783#7 37657905#3 37657905#3.48 37657905#5 37657905#5.10 37657905#5.46 37657905#7 37657905#7.49 476409328#0 476409328#0.201 476409328#2 476409328#2.118 8071925#0 8071925#0.9 8071925#0.55 8071925#2 8071925#2.36 8071925#2.74 465799093#0 465799093#0.8 465799093#0.46 465799093#0.91 65588097#0 65588097#0.9 -6384373#4 -6384373#4.41 -6384373#4.51 -6384373#1 6383185#5 61151096 6460085#5 6460085#5.26 170683231#8 170683231#8.40 170683231#10 170683231#10.39 -791722143#0 -791722143#0.80 476409332#0 476409332#0.44 476409332#2 476409332#2.43 6460085#7 6460085#7.14 6460085#7.41 6460085#9 6460085#9.41 6460085#9.71 6460085#12 6460085#12.26 735164737 735164737.10 735164737.15 6522860#0 6522860#0.11 -65588097#11 -65588097#11.42 -65588097#9 6345330#1 6495798#4 6523125#2 -170683288#5 -170683288#5.41 -170683288#3 -170683288#3.39 -170683288#3.69 -170683288#3.76 -476409332#8 -6356667#2 -6356667#1 -6356667#1.147 -6356667#1.181 -428315591#1 -6356671#2 -6356671#2.8 -6356671#2.34 6349021#0 6349021#1 6349021#1.39 -40416127#2 -40416127#2.7 -40416127#2.26 40416130#0 40416130#1 40416130#2 -6353172#0 -6353177#4 -6463035#11 -6463035#11.50 -6463035#9 -6463035#9.48 -6463035#7 6356676#1 -170683665#2 -170683665#2.49 -170683665#2.51 -170683665#2.95 -6495801#1 -6495801#0 -185485132#12 -185485132#12.125 -185485132#11 -185485132#11.16 243349945#9 243349945#9.50 6494975#9 6494975#9.108 6494975#9.119 805658294#2 805658294#2.39 805658294#4 805658294#4.48 -6472289#3 -243349945#14 -243349945#14.50 -243349942#0 -243349942#0.28 243349944#21 243349944#21.48 243349944#23 243349944#23.46 160624558#1 243349945#17 243349945#18 243349945#19 352434874#3 808266757#1 263665040#4 263665040#4.7 263665040#4.17 263665040#4.26 263665040#4.35 263665040#4.44 263665040#4.53 263665040#4.62 263665040#4.71 263665040#4.80 6477474#0 6477474#0.14 6477474#0.21 6511939#0 6511939#0.25 6511939#0.34 6511939#0.44 6511939#0.53 6511939#0.62 6511939#0.72 6511939#0.81 6511939#0.90 6511939#0.100 6521060#2 6521060#2.16 6521060#2.23 6521060#2.28 6521060#2.33 6521060#2.38 6521060#2.49 6521060#2.53 6521060#2.58 6521060#2.64 6521060#2.69 642739853 642739853.63 642739853.66 6516132 6516132.2 6516132.5 6516132.73 6516132.82 6516132.90 6463022#7 6463022#7.24 6463022#7.39 6463022#7.50 8071849#3 243352637#0 243352637#1 243352637#1.16 243352637#1.33 243352637#1.49 243352637#1.68 -6344425#1 -6344425#1.37 -6344425#1.51 -6344425#1.108 -6344425#1.115 -6344425#1.134 -6345302#1 -6345302#1.12 -6345302#1.17 -6343958#3 -6343958#2 -6343958#1 -6343958#0 -336908257#8 -243349944#32 -6409640#11 -6447445#23 -6447445#23.8 -6447445#23.42 -243349941#8 -243349941#7 -243349941#7.26 -352434864#1 -352434864#1.74 351740958#0 351740958#0.23 351740958#0.76 351740959 -263665039 -263665039.32 -263665039.58 -263665039.72 -6449970#12 -243349338#10 359671039#3 -438895608#0 -438895608#0.27 438895607 438895607.119 -6447445#13 -6447445#13.40 -6447445#11 -22760521#2 -22760521#2.81 -22760521#2.121 428246847#0 428246847#0.8 428246847#0.22 6386110#0 6386110#0.16 6386110#0.25 6386110#0.55 -243349338#6 -243349338#6.14"/>
</vehicle>
<vehicle id = "veh6" type= "veh_passenger" depart="3605" >
<route edges =" -6522868 6403883#8 -6428544#15 -6428544#15.8 -6462093 -6462093.45 -6462093.54 -6462093.65 -6462093.80 -6462093.95 -6462093.117 -6462093.128 -6462093.141 -6462093.175 -6323849#1 -6323849#1.28 -6411908#6 -6411908#5 -6411908#5.12 -6411908#5.22 -6411908#5.31 -6411908#4 -158882517#2 6346524#2 6346524#3 6346524#3.79 6346524#3.88 6346524#3.93 6346524#3.98 6346524#3.103 6346524#3.111 6346524#3.116 6346524#3.121 6346524#4 6346524#4.124 6346524#4.138 -263668130#0 337099385#1 -6428544#6 -6428544#5 -8071381#1 -8071381#1.135 -462701467#1 -462701467#1.25 -8071894#4 -8071894#3 -8071894#2 -6358524#12 -6346308#6 6374789#13 621088607#0 621088607#1 -749754758#12 -749754758#12.26 -6368518#3 -6368518#3.49 -6368518#1 -6368518#1.50 -6368518#1.97 -6368518#1.99 -6508650#4 -6508650#4.2 -6508650#4.3 6346308#0 6346308#0.52 6366765#5 6366765#5.118 6414229#4 6414229#4.5 6414229#4.47 6414229#4.88 -749754758#7 -749754758#7.3 -749754758#7.122 6464391#13 6464391#13.8 6464391#13.49 6464391#13.91 6366765#10 6366765#10.4 6366765#10.120 -6384350#3 -6384350#3.9 -6384350#3.48 -6384350#3.94 -6508650#2 -6508650#2.140 -6508650#2.252 436163947#0 436163947#0.8 436163947#0.75 460423542#0 460423542#0.9 460423542#2 460423542#2.42 460423542#2.44 6368829#0 6368829#0.7 6368829#0.9 6368829#0.12 6368829#0.14 6368829#0.18 6368829#0.59 -256993082#3 -256993082#3.4 -256993082#3.32 -256993082#3.38 -508340468#5 -508340468#5.10 -508340468#5.76 -508340468#2 -508340468#2.20 -508340468#2.58 -460423539#2 -460423539#2.8 -460423539#2.47 -460423539#2.71 65588116#0 65588116#0.12 6343952#0 6343952#0.45 6511393#8 6430733#3 6430733#3.48 6430733#5 6430733#5.62 -6461453#15 -6461453#15.4 -6461453#15.17 -6461453#15.62 -6461453#15.77 -6461453#10 -6461453#10.30 -6461453#10.33 -6461453#10.45 -6461453#10.87 6415868#5 158612542#8 158612542#8.37 158612542#8.77 158612542#8.79 158612542#11 158612542#11.75 158612542#11.76 158612542#13 158612542#13.18 158612542#13.36 -6474762#4 -6474762#4.45 -6474762#4.49 -6474762#4.53 -6474762#4.56 -6474762#4.60 -6474762#4.64 6358498#0 6358498#0.53 742713664#0 742713664#0.9 742713664#0.19 742713664#0.21 6358524#0 6358524#0.10 6358524#0.125 6358524#3 6358524#3.6 6358524#3.97 6358524#6 6358524#6.5 6358524#6.55 6414229#12 -752851600#10 -752851600#10.40 -752851600#10.121 -6464391#2 -6464391#2.4 -6464391#2.68 -621283351#2 -621283351#2.12 -621283351#2.21 158882505#0 158882505#0.42 158882505#2 -6346524#0 171739214#13 171739214#14 171739214#15 171739214#15.31 171739214#15.57 171739214#20 6469837#0 6469837#0.39 6469837#2 -158882517#5 6403883#3 158882511#8 158882511#9 158882511#9.51 8111707#0 8111707#0.47 8111707#2 8111707#2.47 603522174#2 603522174#2.123 -8111708#5 -8111708#5.7 -8111708#5.45 -6505136#13 -6505136#13.115 8111709#2 8111709#2.49 -6464042#7 -6464042#7.121 -6464042#7.127 -6464042#7.144 -6464042#7.161 6384359#6 6384359#6.48 6384359#8 6384359#9 6384359#9.26 -6381494#3 -6381494#3.43 -6381494#1 -6459047 -6459047.72 -6513783#0 292812445#7 292812445#7.46 292812445#9 292812445#9.49 337739268 337739268.124 337739267#0 337739267#1 -481291488#10 -481291488#10.44 -481291488#10.61 -481291488#10.85 -481291488#10.132 -481291488#10.142 243349944#7 -460419011#3 -40416132#0 -40416132#0.78 -525497323#2 -525497323#2.13 -6481166#12 -6481166#11 -6481166#11.122 -6481166#11.125 6464138#14 -481291488#1 6464126#0 6464126#0.46 6464126#0.49 -460419011#1 -460419011#1.97 243339793#2 243339793#2.49 243339793#4 -460419028#4 6464126#6 6464126#7 6464126#7.50 6464126#9 6464126#9.46 -185485132#3 -185485132#3.101 -185485132#2 -185485132#2.8 481291012#2 481291012#2.49 -6494970#7 -6494970#6 -6494970#6.6 -6494970#4 -6494970#4.172 169917351#25 169917351#25.7 169917351#25.72 -336908264#2 -336908264#2.145 185485127#4 185485127#4.10 185485127#6 6472293#3 6472293#4 6472293#4.162 -8071924#3 -8071924#3.39 -8071924#3.51 -8071924#0 -8071924#0.15 -428246845 -6386110#6 -6386110#6.5 243339793#15 243339793#15.46 795671505#0 795671505#0.10 795671505#0.55 795671505#2 243349338#8 -6501822#12 6464130#0 6464130#0.42 -359671039#1 6336174#2 6336174#2.43 6449970#10 6464130#4 6464130#5 6464130#6 -243349941#4 -6336174#6 -6336174#5 -6506505#4 259277920#2 259277920#2.23 -6348024#4 -6425683#1 -6506505#2 -6463541#4 -6463541#4.39 -6463541#4.42 6449970#4 -185485117#3 -185485117#2 -6501822#4 -6501822#3 -6501822#2 -6507813#3 -6507813#3.42 -6507813#3.51 -6507813#0 -6391682#1 -6391682#1.146 -256996977#2 -256996977#2.16 -256996977#2.48 -460421482#10 -460421482#10.13 -460421482#10.46 -460421482#10.56 -460421482#10.76 6358721#0 6358721#0.9 6415147#4 6415147#5 6415147#6 6351349#2 642753173 6354836#3 6354836#4 6354836#5 6354836#5.54 6354836#7 6354836#7.92 6467368#4 6354794#0 6354794#1 6354794#1.121 -6496652#8 -6496652#8.7 -6496652#6 -6496652#5 -6496652#5.73 -6351337#2 -6351337#2.7 -6485999#1 -6485999#1.42 -185483738#5 -185483738#5.100 -185483738#3 -185483738#3.11 -185483738#3.19 -185483738#2 -185483738#2.93 6371720#6 -661086629#0 -185483733 -6414318#4 -157167355#0"/>
</vehicle>
<vehicle id = "veh7" type= "veh_passenger" depart="3605" >
<route edges =" 817434294 817434294.10 817434294.36 817434294.44 817434294.63 817434294.119 6343949#0 6343949#0.7 6343949#0.86 813722270#0 813722270#0.7 813722270#0.42 813722270#0.74 813722270#0.75 813722270#0.121 813722270#5 813722270#5.7 813722270#5.118 171739207#0 171739207#0.49 160552467#0 337668916#8 337668916#8.47 -6403874#0 -65588100#6 -65588100#6.7 6430729#9 6430729#9.48 8071898#2 8071898#3 620762214 332092195#0 332092195#0.9 332092195#0.74 460423532#0 460423532#0.2 620762218#0 620762218#0.55 620762218#0.66 620762218#0.68 620762218#0.81 620762218#3 620762218#3.7 -525497324#2 243349944#4 243349944#4.53 -66558981#2 -66558981#2.131 -66558981#2.234 525497323#2 525497323#2.81 40416132#0 40416132#0.19 -460419011#2 -6464126#2 -6464126#2.46 -6464126#2.49 481291488#1 -6464138#14 -6481166#10 -6481166#10.6 -6481166#10.8 -6481166#10.120 -6481166#9 -6481166#9.8 486874837#1 -6447971#9 6425689#0 6425689#0.48 6425689#2 6425689#2.48 -6380913#13 6425675 460419024#5 460419024#5.50 460419024#5.63 460419024#5.69 -621319697#3 -621319697#3.10 -621319697#3.29 -621319697#3.34 -621319697#3.38 -6380913#11 -6380913#11.53 -6380913#7 -6380913#7.22 -6380913#5 -6507809#6 -6507809#6.47 -6507809#4 -6507809#3 -6481166#4 -169917351#3 -169917351#3.10 -169917351#3.45 -169917351#3.90 901477546#0 901477546#0.5 901477546#0.47 901477546#0.85 -901474739#9 -901474739#9.9 -901474739#9.83 -901474739#6 -901474739#6.7 -901474739#6.37 -901474739#6.73 22917110#3 22917110#3.6 22917110#3.83 -876005346#3 -876005346#2 -876005346#2.9 -876005346#2.90 893868546#0 893868546#0.7 893868546#0.194 353690149#0 353690149#0.9 353690149#0.132 353690149#0.196 893866055#0 893866055#0.7 893866055#0.120 893866055#0.121 893866059#0 893866059#0.8 893866059#0.9 893866059#0.122 893866064#0 893866064#0.7 893866064#0.122 -893866065#10 -893866065#10.7 -893866065#10.49 -893866065#10.90 -353690148#6 -353690148#6.8 -353690148#6.122 -353690148#3 -353690148#3.7 -353690148#3.59 -353690148#3.121 -353690147#3 -353690147#3.7 -353690147#3.110 -353690147#3.122 -486864438#4 -486864438#4.7 -486864438#4.89 -243338979#12 -243338979#12.10 -243338979#12.11 -243338979#12.62 436480246#0 436480246#0.12 436480246#0.32 436480246#0.41 436480246#0.55 6372377#0 6372377#0.23 436480245#3 436480241#0 436480241#0.39 -6341064#1 -6341064#1.12 -6341064#1.42 -353690158#2 -353690158#2.7 -353690158#2.12 -353690158#2.17 -353690158#2.23 -353690158#2.28 -353690158#2.33 -353690158#2.39 -353690158#2.44 -353690158#2.49 -353690158#2.55 -353690158#2.61 -353690158#2.66 -353690158#2.72 -353690158#2.77 -353690158#2.83 -353690158#2.88 -353690158#2.94 -353690158#2.99 -353690158#2.105 -353690158#2.137 -353690158#2.195 -353690158#2.212 -353690158#2.213 -353690158#2.216 -353690158#2.218 -353690158#2.223 -428088883#1 -428088883#1.15 -428088897 -428088888 -737711647 -332223490#1 -332223490#1.19 -465971498#3 -465971498#3.2 -465971498#3.3 -465971498#3.5 -465971498#3.7 -465971498#3.10 -465971498#3.34 -465971498#3.84 369877037#0 369877037#0.9 369877037#0.83 537686684#0 537686684#0.43 537686684#0.53 65588108#0 65588108#0.15 65588108#0.50 6463530#0 6463530#0.2 6463530#0.8 6463530#0.13 6463530#0.54 6463530#0.95 6463530#6 6463530#6.6 6463530#6.49 6463530#6.89 6343878#9 6343878#9.7 6343878#9.103 353690159#4 353690159#4.6 353690159#4.49 353690159#4.69 353690159#4.76 353690159#4.85 353690159#9 353690159#9.9 353690159#9.28 353690159#9.40 353690159#9.53 353690159#9.88 -243338979#3 -243338979#3.10 -243338979#3.38 -243338979#3.51 -243338979#3.65 6376376#4 6376376#4.5 6376376#4.86 -6476327#11 -6476327#10 -6476327#10.8 -6476327#10.86 893868549#12 893868549#12.7 893868549#12.90 -893868550#2 -893868550#2.7 -893868550#2.86 -893868551#2 -893868551#2.8 -893868551#2.91 -6476327#3 -6476327#3.6 -6476327#3.45 -6476327#3.100 -6476327#3.105 256996971#0 256996971#0.7 256996971#0.23 256996971#0.32 256996971#0.37 256996971#0.85 6458014#0 6458014#0.8 6458014#0.84 22917663#6 22917663#6.6 22917663#6.34 22917663#6.58 22917663#6.88 6506833#5 6506833#5.9 6506833#5.46 6506833#5.50 6506833#5.72 6506833#5.85 6506833#11 6506833#11.9 6506833#11.45 6506833#11.74 6506833#11.79 6506833#15 6506833#15.8 6506833#15.10 6506833#15.35 49394452#5 49394452#5.6 49394452#5.186 -965874293#1 -965874293#1.6 -965874293#1.37 -243338978#10 -243338978#10.11 -243338978#10.41 -243338978#10.48 -243338978#10.78 -347092915#13 -347092915#13.9 -347092915#13.31 -347092915#13.90 -6465130#6 -6465130#6.8 -6465130#6.47 -6465130#6.84 22917663#15 22917663#15.9 22917663#15.45 22917663#15.80 -243338978#3 -243338978#3.21 -243338978#3.34 -243338978#3.83 256996974#11 256996974#11.6 256996974#11.33 256996974#11.65 256996972 256996972.16 256996972.70 256996978#0 256996978#0.7 256996978#0.68 256996973#0 256996973#0.33 256996973#0.45 256996973#0.49 6385341#0 6385341#0.19 6385341#0.20 6385341#0.34 6385341#0.47 6385341#0.50 6385341#0.54 6385341#0.58 6385341#0.73 6385341#0.78 6385341#0.81 6385341#0.84 6385341#0.87 6385341#0.126 6385341#0.138 6384260#2 6384260#3 6384260#3.54 -6487445#4 -6487445#4.15 -6487445#4.55 6415147#0 6415147#0.61 6449462#3 6449462#3.7 6449462#3.50 6449462#3.60 6449462#3.72 6449462#3.87 795669782#0 795669782#0.54 6414318#1 6414318#1.86 6497081#8 6371720#3 157167355#0"/>
</vehicle>
<vehicle id = "veh8" type= "veh_passenger" depart="7210" >
<route edges =" -813722269#3 -813722269#3.7 -813722269#3.48 -813722269#3.84 -813722269#3.86 569505974#0 569505974#0.10 569505974#0.37 816616073#0 816616073#0.78 6343949#3 6343949#3.9 6343949#3.49 6343949#6 6343949#7 6343949#8 6343949#8.52 6343949#10 6343949#10.49 6343949#12 6343949#12.47 -525497324#3 620762218#5 620762218#5.18 620762218#5.80 -66558981#7 -66558981#7.65 -66558981#7.83 -66558981#7.105 -66558981#7.123 243349944#6 -481291488#4 -481291488#4.47 -481291488#2 -481291488#1 -481291488#0 -481291488#0.69 -481291488#0.82 -6447971#10 -6447971#10.11 -6447971#9 6425689#0 6425689#0.48 6425689#2 6425689#2.48 6380913#14 801995082 801995081#0 801995081#1 801995081#1.213 256994206#0 256994206#0.8 256994206#0.43 256994206#0.60 460419028#0 460419028#0.11 460419028#0.49 460419028#0.79 460419028#0.95 460419028#3 6464126#6 6464126#7 6464126#7.50 -22917113#1 -22917113#1.55 -22917112 -185485118#1 -185485118#0 -185485118#0.55 -185485118#0.102 -185485118#0.141 185485127#0 6523501#5 6523501#5.201 185485132#0 185485132#0.7 481291012#2 481291012#2.49 6494975#0 6494975#0.105 6494975#1 6494975#1.9 -6464126#12 -6464126#12.48 185485132#4 243349338#3 243349338#3.49 243349338#5"/>
</vehicle>
<vehicle id = "veh9" type= "veh_passenger" depart="7210" >
<route edges =" -6457203#16 -6457203#16.59 -6323849#6 -6323849#6.43 -6403883#6 -6403883#5 6368504#0 6368504#1 6368504#1.33 6368504#3 6368504#3.46 6368504#5 6368504#5.48 6368504#7 6368504#7.50 -6513783#8 -170683231#20 -170683231#20.51 -170683231#18 -170683231#18.37 -170683231#18.49 -336904472#4 -336904472#4.96 37657905#7 37657905#7.49 476409328#0 476409328#0.201 6384373#0 6383185#5 61151096 6460085#5 6460085#5.26 -170683231#7 65588097#6 -476409332#4 -476409332#3 -476409332#3.42 -476409332#1 -476409332#1.39 -6368504#18 -6368504#18.35 -6368504#18.56 -6368504#18.61 -6368504#14 -6368504#14.46 -6368504#14.56 6381494#13 6381494#13.7 6381494#13.132 -603522173#3 -603522173#3.49 6513783#10 -603522176#1 -603522176#1.51 -37657904 -242516209#3 -242516209#3.47 -157284449#0 -157284449#0.177 -157284449#0.200 -37686291#2 -37686291#2.3 -37686291#2.7 -37686291#2.12 -37686291#2.54 6457203#20 6457203#20.10 6457203#20.25 6457203#20.27 6457203#23 6457203#23.25 6457203#23.175 460423547 6390187#0 6390187#0.22 6390187#0.190 6390187#0.194 6463331#0 6463331#1 6463331#2 6463331#2.38 6463331#2.41 504279350#0 504279350#0.3 504279350#0.4 504279350#0.6 504279350#0.9 6363153#3 6363153#3.40 6363153#3.50 6363153#3.56 392673856 392673856.85 -933598957 -933598957.13 945555824#2 945555824#2.47 481291019#0 481291019#0.47 -476409334#1 603522176#8 603522176#8.47 603522176#10 603522176#10.44 603522176#10.46 -8071885#0 -8071885#0.116 735164736 735164736.7 735164736.13 -6460085#13 -6460085#13.21 6523125#0 65588097#10 65588097#10.40 6522860#1 6522860#2 6522860#2.23 6522860#2.40 6522860#2.46 6522860#2.55 6522860#2.62 6522860#2.67 6522860#2.76 6522860#2.89 -6495798#6 -6495798#6.39 -6495798#4 -6495798#3 -6495798#2 -170683231#2 6356667#2 476409332#8 476409332#9 476409332#9.68 -6349126#4 -6349126#4.29 -6349126#4.47 -6349126#4.62 -6349126#4.68 -6349126#4.76 -6349126#4.79 -6349126#4.104 -854081622#0 -854081622#0.13 -337818332#2 -337818332#2.7 -337818332#2.70 6488417#0 6488417#0.10 382551018 739678024#0 739678024#0.21 739678024#0.22 -912599281#1 -912599281#1.10 -912599281#1.25 -912599281#1.45 -40416127#2 -40416127#2.7 -40416127#2.26 40416130#0 40416130#1 40416130#2 6353172#1 6414237#2 6414237#2.7 6414237#2.43 6414237#2.81 6414237#6 6414237#6.7 6414237#6.34 -6369950#6 -6369950#6.6 -6369950#6.120 -40416130#6 -243352868#1 -243352868#1.19 170683665#13 -6369950#2 -6369950#2.24 -6369950#0 -336908262#6 -359671039#10 -359671039#10.86 -359671039#8 -359671039#8.55 243349945#18 532125609#3 808266757#0 808266757#0.7 352434874#4 352434874#4.20 352434874#4.33 352434874#4.43 352434874#4.55 352434874#4.68 352434874#4.74 6474773#1 6474773#1.19 6474773#1.72 6474773#1.81 -263665040#4 -263665040#4.9 -263665040#4.18 -263665040#4.27 -263665040#4.36 -263665040#4.45 -263665040#4.54 -263665040#4.63 -263665040#4.72 -263665040#4.82 808266757#2 808266757#2.40 808266757#4 808266757#4.120 808266757#6 -6468802#5 -6468802#5.9 -6468802#5.16 -6468802#5.24 -6468802#5.31 -6343958#0 -336908257#8 -243349944#32 -243349944#31 -243349944#31.42 -243349944#29 -243349944#28 -352434874#1 -6447445#16 -532125609#0 -6449970#12 243349338#11 243349338#11.79 -6506505#7 -6506505#7.50 -6506505#5 -6336174#4 -6449970#9 -6449970#8 -259277920#0 -259277920#0.32 -259277920#0.50 -8071924#5 6501822#7 6501822#8 6501822#8.52 -795671506#1 -795671506#1.44 -243339793#16 -243339793#16.49 -243339793#14 -243339793#14.51 6494975#1 6494975#1.9 6464126#13 6464126#13.49 6464126#15 6464126#15.47 795671505#2 243349338#8 160624556 160624556.10 438895607 438895607.119 160624558#0 160624558#0.9 160624558#0.16 160624558#1 -243349945#16 -243349945#16.50 6472289#3 805658294#6 805658294#6.47 160624558#3 160624558#3.42 -336908262#3 -336908262#3.49 -336908262#1 -336908262#1.48 279467136#0 279467136#0.117 279467136#0.122 -6463035#7 -6356676#0 -805680044#9 -805680044#9.50 -185485132#12 -185485132#12.125 805658294#0 805658294#0.38 805658294#0.52 -6494975#9 -6494975#9.13 -6494975#9.24 -243349945#10 -243349945#10.46 -243349945#8 -243349945#8.11 -243349945#8.51 -22917113#6 243349944#15 243349944#15.48 -185485132#9 6447445#7 6447445#7.46 -6494975#6 -6494975#6.81 256994205#3 428246847#0 428246847#0.8 428246847#0.22 6386110#0 6386110#0.16 6386110#0.25 6386110#0.55 -243349338#6 -243349338#6.14"/>
</vehicle>
<vehicle id = "veh10" type= "veh_passenger" depart="7210" >
<route edges =" -6522868 6403883#8 -6428544#15 -6428544#15.8 -6428544#13 32143939 6323849#0 6323849#0.39 6323849#2 -160552467#11 -160552467#11.13 -160552467#11.23 -160552467#11.33 -160552467#11.44 -160552467#11.54 -160552467#11.62 -160552467#11.70 -160552467#11.80 -160552467#11.88 -160552467#11.115 -160552467#11.127 -160552467#10 -160552467#10.17 -160552467#10.28 -160552467#10.38 -158882511#4 -6411908#4 -158882517#2 6346524#2 -158882511#2 -158882511#2.44 -6368665#4 -6368665#4.121 -158882517#0 -896104581#1 -896104581#1.6 -621283354 428098985#0 428098985#0.19 428314460 428314467 428314467.7 428098986 428098986.8 428098986.12 6470834 6470834.1 6470834.5 6470834.9 -8071894#4 -8071894#3 -8071894#2 -6358524#12 -6346308#6 -6374789#12 -6374789#12.53 -6374789#10 -6374789#10.121 -6374789#8 -6374789#8.5 -6374789#8.120 -6384350#11 -6384350#11.8 -6384350#11.47 -6384350#11.90 -749754758#1 -749754758#1.7 -749754758#1.102 749754757#0 749754757#0.4 749754757#0.6 749754757#0.26 749754757#0.48 749754757#0.55 749754757#0.58 749754757#0.62 749754757#0.64 749754757#0.66 749754757#0.67 749754757#0.68 749754757#0.70 749754757#0.72 749754757#0.73 749754754#0 749754754#0.11 749754754#1 749754754#1.14 749754754#1.29 -6358498#1 -6358498#1.87 -6461453#18 -6461453#18.7 -6461453#18.14 -6461453#18.47 6430737#0 6430737#0.47 6430737#0.73 158612542#13 158612542#13.18 158612542#13.36 95600805#0 95600805#0.117 -548654006#1 -548654006#1.9 -548654006#1.38 -548654006#1.47 -548654006#1.55 6358524#0 6358524#0.10 6358524#0.125 6358524#3 6358524#3.6 6358524#3.97 -6464391#5 -6464391#5.5 -6464391#5.73 -6464391#2 -6464391#2.4 -6464391#2.68 -621283351#2 -621283351#2.12 -621283351#2.21 158882505#0 158882505#0.42 158882505#2 -6346524#0 171739214#13 171739214#14 160552467#6 160552467#6.15 160552467#6.20 160552467#6.50 158882505#6 158882505#7 6469837#2 158882517#6 158882517#6.46 158882517#6.66 158882517#6.67 158882517#6.69 158882517#6.71 158882517#6.73 -6457203#7 -6457203#7.15 -6457203#7.37 -6457203#7.51 -6457203#7.77 -6457203#7.91 8111709#0 8111709#0.47 -6505136#12 -6505136#12.73 -6505136#12.84 -6505136#12.102 -6505136#12.111 -6505136#12.122 6384359#4 6384359#4.13 6384359#4.31 6384359#4.51 6464042#3 6464042#3.16 6464042#3.33 6464042#3.50 6464042#3.56 6464042#8 6464042#8.123 37657905#0 37657905#0.5 37657905#0.47 37657905#3 37657905#3.48 -6381494#8 -6381494#8.122 -6381494#8.124 -6381494#6 -6381494#6.57 -6381494#6.77 -6381494#6.94 -6381494#3 -6381494#3.43 6463017#6 6463017#6.48 6386837#1 8071897#0 8071897#0.89 -6444677 481291015#0 481291015#0.20 481291015#0.59 -343521145#3 -343521145#3.32 -343521145#3.66 -343521145#3.101 -343521145#3.142 -343521145#3.155 337739267#0 337818462 337818462.3 337818462.6 337739271#1 337739271#1.6 337739269#0 -460419011#4 243349944#8 243349944#9 396055523#9 396055523#9.6 396055523#9.20 396055523#9.54 396055523#11 396055523#11.17 396055523#11.23 396055523#11.42 396055523#11.62 396055523#11.85 396055523#11.96 396055523#11.121 460419028#0 460419028#0.11 460419028#0.49 460419028#0.79 460419028#0.95 243349338#0 243349338#0.18 6360256#4 256994205#0 256994205#0.67 -22917113#3 -22917113#2 6464126#9 6464126#9.46 6464126#11 6464126#11.50 -6494975#1 -6494975#1.103 243339793#13 243339793#13.49 243339793#15 243339793#15.46 795671505#0 795671505#0.10 795671505#0.55 6464126#17 6464126#17.40 6501822#11 6464130#0 6464130#0.42 359671039#2 243349338#10 -6449970#11 6464130#4 6464130#5 -243349331#1 -243349331#1.102 -243349331#0 -243349331#0.131 -6348024#4 -6425683#1 6506505#3 -259277920#1 -6449970#7 -6449970#7.42 -6449970#5 -185485117#3 -185485117#2 6501822#5 6501822#5.157 -8071924#4 -6472293#5 -6472293#5.39 -6472293#3 -6472293#2 6507813#1 6507813#1.41 6507813#1.49 6501822#2 185485127#10 185485127#11 -6449970#1 -6449970#1.18 -6507818#2 -6507818#0 -6501822#0 -6501822#0.165 -256996977#7 -256996977#7.12 -256996977#7.47 -256996977#5 -256996977#5.28 -256996977#5.42 -256996977#5.43 -256996977#2 -256996977#2.16 -256996977#2.48 -460421482#10 -460421482#10.13 -460421482#10.46 -460421482#10.56 -460421482#10.76 6494970#0 6494970#0.9 6494970#0.105 -169917351#24 -169917351#24.6 -169917351#24.71 -169917351#21 -169917351#21.6 -169917351#21.71 -6452520#2 -6452520#2.4 -6452520#2.101 460421482#0 460421482#0.8 460421482#0.73 6497081#0 6497081#0.8 6415147#3 6415147#4 6415147#5 6415147#6 6351349#2 642753174 -6384264 -295783215#1 14374224#0 14374224#0.36 14374224#0.80 14374224#0.83 14374224#4 14374224#4.44 14374224#4.54 14374224#4.84 14374224#4.122 -6414318#4 -157167355#0"/>
</vehicle>
<vehicle id = "veh11" type= "veh_passenger" depart="7210" >
<route edges =" 817434294 817434294.10 817434294.36 817434294.44 817434294.63 817434294.119 816616072#4 816616072#4.7 816616072#4.62 816616072#4.121 6430729#0 6430729#0.7 6430729#0.86 813722270#5 813722270#5.7 813722270#5.118 171739207#0 171739207#0.49 171739207#2 171739207#2.46 171739207#4 171739207#4.40 171739207#4.43 171739207#4.47 171739207#4.50 171739207#4.52 171739207#4.54 171739207#4.77 171739207#4.80 171739207#4.82 171739207#4.85 171739207#4.87 171739207#4.90 171739207#4.113 8071898#0 8071898#0.8 8071898#0.10 8071898#0.26 8071898#0.40 6430729#11 6430729#11.51 65588093#3 292812445#3 292812445#3.49 292812445#5 292812445#5.45 -525497324#8 6430729#17 6430729#17.51 -620762224#0 -620762218#5 -620762218#5.44 -620762218#5.106 -525497324#2 -525497324#1 -525497324#0 -6512920#11 -6512920#11.12 -6512920#11.49 -6512920#11.62 -6512920#11.76 -6512920#11.147 -293775902#11 -293775902#11.6 -293775902#11.48 -293775902#11.91 -6440371#8 -6440371#8.7 -6440371#8.122 -6440371#8.124 -6440371#8.125 -6440371#5 -6440371#5.4 -6440371#5.6 -6440371#5.7 -6440371#5.119 -6440371#5.121 -6440371#2 -6440371#2.9 -6440371#2.11 -6440371#2.121 -6440371#2.122 -460419029#8 -460419029#8.7 -460419029#8.46 -460419029#8.90 -460419029#4 -460419029#4.8 -460419029#4.44 -460419029#4.46 -460419029#4.90 -353690152#2 -353690152#2.8 -353690152#2.89 -6476327#20 -6476327#20.8 -6476327#20.163 -6476327#20.182 -6476327#20.195 -486844942#3 -486844942#3.8 -486844942#3.80 -486844942#3.90 -243338979#3 -243338979#3.10 -243338979#3.38 -243338979#3.51 -243338979#3.65 -6376376#3 -6376376#3.1 -6376376#3.10 -6376376#3.64 -6376376#3.89 -6435230#8 -6463530#13 -6463530#13.11 -6463530#13.50 -6463530#13.94 -6343878#8 -6343878#8.7 -6343878#8.85 347094714#4 347094714#4.6 347094714#4.48 347094714#4.87 -6435230#5 -6435230#5.17 -6435230#4 -6435230#4.33 -6435230#2 -6435230#2.6 -6435230#2.34 -436480244#2 -436480244#2.33 -436480244#2.39 -436480244#2.42 32121988#0 32121988#0.9 32121988#0.30 32121988#0.39 32121988#0.51 32121988#0.83 6397352#0 6397352#0.2 6397352#0.5 6397352#0.9 6397352#0.56 6397352#0.105 617435761#5 617435761#5.33 617435761#5.45 6476327#4 6476327#4.7 6476327#4.35 6476327#4.86 893868549#12 893868549#12.7 893868549#12.90 901474739#0 901474739#0.7 901474739#0.111 -22917110#2 -22917110#2.6 -22917110#2.86 901477545#4 901477545#4.7 901477545#4.69 901477545#7 901477545#7.5 901477545#7.83 169917351#0 169917351#0.8 169917351#0.53 169917351#0.88 169917351#4 169917351#4.51 6447971#4 6507809#4 -6515975#5 -6515975#5.48 169917351#7 169917351#7.49 6380913#4 6507809#7 6507809#7.46 6507809#7.87 6516509#11 6516509#11.6 6516509#11.34 6516509#11.86 6516509#15 6516509#15.7 6516509#15.35 6516509#15.48 6516509#15.68 6516509#15.70 6516509#15.79 6516509#15.84 6516509#15.98 6516509#15.101 256996976#0 256996976#0.11 256996976#0.20 256996976#0.46 256996976#0.79 256996976#3 256996976#3.7 256996976#3.76 6449462#0 6449462#0.9 6449462#0.46 6449462#3 6449462#3.7 6449462#3.50 6449462#3.60 6449462#3.72 6449462#3.87 795669782#0 795669782#0.54 -6414318#0 -6414318#0.76 -6414318#0.81 460418987#0 460418987#0.4 460418987#0.8 -6414273#1 -6414273#1.22 -460418992#4 -460418992#4.6 -460418992#4.125 6371704#1 6371704#1.36 460418987#3 460418987#3.91 460418978#0 460418978#0.8 460418978#0.76 460418978#3 460418978#3.9 460418978#3.49 369455641#1 369455641#1.28 369455641#1.78 512126022#0 512126022#0.11 512126022#0.46 185483738#4 185483738#4.14 185483738#6 185483738#6.71 185483738#6.123 -6496652#1 -6496652#1.86 -512126023#2 -512126023#2.37 -512126023#2.47 -512126023#0 -428247196#1 -428247196#1.16 428100741#0 428100741#0.10 -754699003#6 -754699003#6.36 -754699003#4 -754699003#4.5 -754699003#2 -754699003#2.70 -754699003#0 -157172053#4 -157172053#2 -157172053#2.13 -157172053#2.25 -157172053#2.51 -157172053#2.64 -6440158#5 -6496662#2 -6371282#6 -6371282#5 -6371282#5.108 -6371282#3 -6371282#3.107 -6371282#3.113 -157167357#7 -6440158#1 -6371710#1 -6371710#0 -6371710#0.81 6522981#5 6522981#5.101 6522981#5.232 6522981#5.253 6522981#5.255 6522981#5.353 -22917677#2 -22917677#2.4 -22917677#2.10 -22917677#2.39 -6496652#8 -6496652#8.7 -6496652#6 -6367253#4 -6367253#4.7 -6367253#4.119 6485999#3 6485999#3.70 -6354794#0 -6467368#4 -6467368#3 -6467368#2 -661086629#2 -661086629#2.7 -661086629#0 -185483733 185483738#0 -6371720#5 -6371720#5.41 157167355#0"/>
</vehicle>
<vehicle id = "veh12" type= "veh_passenger" depart="10815" >
<route edges =" -813722269#3 -813722269#3.7 -813722269#3.48 -813722269#3.84 -813722269#3.86 620762213#0 620762213#0.9 620762213#0.88 57883609#0 57883609#0.6 57883609#0.57 57883609#3 57883609#3.43 57883609#3.52 57883609#3.60 57883609#3.80 179551719 179551719.37 179551719.46 179551719.51 179551719.88 179551719.93 179551719.97 65588093#0 65588093#0.3 65588093#0.6 65588093#0.9 65588093#0.30 65588093#2 6430729#13 6430729#13.48 6430729#15 6430729#15.48 525497324#8 292812445#7 292812445#7.46 6381494#0 -6459047 -6459047.72 6513783#1 6513783#1.64 6463017#5 6463017#6 6463017#6.48 6386837#1 6386837#2 6384359#12 6384359#12.14 6384359#12.24 6384359#12.93 -6444677 -292812445#12 -292812445#12.49 337739268 337739268.124 337739267#0 337739267#1 -481291488#10 -481291488#10.44 -481291488#10.61 -481291488#10.85 -481291488#10.132 -481291488#10.142 243349944#7 243349944#8 243349944#9 -396055523#8 -396055523#8.8 243349945#0 243349945#0.6 243349945#0.83 -6360256#9 -6360256#9.6 -6360256#7 -6360256#7.5 6447445#3 6447445#3.51 6447445#5 6447445#5.47 6447445#7 6447445#7.46 6494975#7 -243349944#18 -243349944#18.47 -243349944#16 -243349944#16.49 22917113#6 243349945#6 243349945#6.48 243349945#6.88 243349945#9 243349945#9.50 243349945#11 243349945#11.47 243349942#1 243349942#1.25 243349942#2 -805680044#10 -805680044#9 -805680044#9.50 6495801#0 6463035#4 6463035#4.46 6463035#4.48 6356676#1 6356676#2 6356676#2.67 6356676#2.82 6356676#2.92 6356671#0 6356671#0.13 6356671#0.39 428315591#1 6356667#0 6356667#0.10 6356667#0.44 170683231#2 6495798#2 -476409332#6 -6448612#8 -6448612#7 -6448612#7.6 -6448612#5 -6448612#5.30 -6448612#3 -6448612#3.16 -6448612#1 -6448612#1.133 -805680044#4 -805680044#4.8 -805680044#4.49 -805680044#4.92 -805680044#0 -805680044#0.6 -805680044#0.45 -805680044#0.95 -92170540#0 -92170540#0.2 169730574#0 169730574#0.11 169730574#0.29 169730574#0.31 854082601 854082601.11 854082601.52 460421484#0 460421484#0.12 -337818330 -465799093#3 -465799093#3.8 -465799093#3.52 -465799093#3.90 6460085#0 6460085#0.9 6460085#0.43 6460085#0.101 6460085#2 6460085#2.86 6460085#4 6460085#4.35 6460085#5 6460085#5.26 -170683231#7 65588097#6 65588097#7 65588097#7.42 65588097#9 65588097#10 65588097#10.40 6522860#1 6448615#0 6448615#0.41 6459736#2 6459736#2.37 6459736#2.48 6459736#2.60 6459736#2.65 6459736#2.73 -6495798#8 -6495798#8.42 -6495798#6 -6495798#6.39 6523125#2 170683288#6 6522860#14 6522860#14.12 6522860#14.34 6522860#14.81 6522860#14.110 6522860#14.119 -6349125#3 -6349125#3.8 -6349125#3.20 -6349125#2 -6349125#2.60 -6349125#2.61 -6349125#2.68 -6349125#2.76 -6349125#2.79 -476409332#11 -476409332#11.8 -476409332#10 -476409332#10.10 -170683288#1 -170683288#1.6 -170683288#1.13 -170683288#0 -170683288#0.47 739678025#0 739678025#0.9 739678025#0.14 739678024#0 739678024#0.21 739678024#0.22 912599280 337818332#0 337818332#0.7 337818332#0.70 -19000995#2 -19000995#2.7 -19000995#2.29 6414237#0 6414237#0.11 6414237#1 6414237#2 6414237#2.7 6414237#2.43 6414237#2.81 -243352868#3 -243352868#3.6 -40416130#5 -40416130#5.43 -40416130#5.45 -6353172#0 170683665#10 170683665#10.11 -6521828#4 -6521828#3 -6521828#3.7 -6521828#3.107 -6521828#3.133 -336908262#5 -336908262#5.80 -336908262#3 -336908262#3.49 -6472289#4 805658294#6 805658294#6.47 805658294#8 -359671039#8 -359671039#8.55 -359671039#6 243349944#26 243349944#27 352434874#2 243349945#20 -263665040#2 -263665040#2.22 243349944#29 243349944#30 243349944#30.41 243349944#32 336908257#8 336908257#9 -808266757#5 -808266757#5.6 6409627#0 6409627#0.39 32135618#1 32135618#1.53 336908261#0 336908261#0.6 336908261#0.47 336908261#0.72 6341490#0 6341490#0.24 6341490#0.57 6341490#0.93 6341490#0.128 -6463022#5 -6463022#5.50 -6463022#5.63 -6463022#5.68 -6463022#5.73 -6463022#4 -6463022#4.10 -6463022#4.17 -6463022#4.24 6472195#2 6472195#2.117 6472195#2.124 6472195#2.126 6472195#2.128 6472195#2.134 6472195#2.151 6472195#2.158 6472195#2.165 6472195#2.173 6342565 6342565.21 6342565.45 6342565.56 6342565.66 6342565.73 6342565.79 6342565.85 6342565.90 6342565.98 6342565.106 6342565.120 6342565.142 6342565.151 6342565.157 295593795 295593795.5 295593795.14 295593795.18 295593795.22 295593795.25 295593795.31 6477471#0 6477471#0.14 6477471#0.26 6477471#0.31 6477471#0.35 40416130#13 40416130#13.94 40416130#15 40416130#15.35 -296605041 -8071850 -8071850.30 -8071850.45 -8071850.53 -8071850.63 -8071850.75 -8071850.81 -8071850.89 -8071849#6 -8071849#6.38 -8071849#6.58 -8071849#6.73 -8071849#6.138 -8071849#6.148 -8071849#6.163 -8071849#6.177 -8071849#6.221 -8071849#3 -8071849#2 -8071849#2.11 -8071849#2.20 -8071849#1 -8071849#1.124 -8071849#1.147 -8071849#1.171 6430750#2 6430750#2.14 6430750#2.25 -6345302#1 -6345302#1.12 -6345302#1.17 -6343958#3 -6343958#2 -6343958#1 -6468802#4 -6468802#4.71 -6468802#4.126 -6468802#4.199 -6468802#4.202 -6468802#4.205 -6468802#4.210 -6468802#4.250 -6468802#4.257 -6468802#4.265 -6447445#27 -6447445#27.41 -6447445#27.75 -6447445#25 -6447445#25.7 -6447445#25.41 -6447445#23 -6447445#23.8 -6447445#23.42 -243349941#8 878126486#0 878126486#0.41 878126486#0.73 878126486#0.75 460419010 460419010.7 460419010.24 -6447445#17 -352434874#0 -263665039 -263665039.32 -263665039.58 -263665039.72 532125609#0 -6447445#15 -6447445#14 -6447445#13 -6447445#13.40 -6447445#11 -22760521#2 -22760521#2.81 -22760521#2.121 428246847#0 428246847#0.8 428246847#0.22 6386110#0 6386110#0.16 6386110#0.25 6386110#0.55 -243349338#6 -243349338#6.14"/>
</vehicle>
<vehicle id = "veh13" type= "veh_passenger" depart="10815" >
<route edges =" -816616074#1 -816616074#1.10 -816616074#1.14 -816616074#1.119 428341734#4 428341734#4.8 428246439#0 428246439#0.14 428246438#0 428246438#0.8 428246440#0 428246440#0.62 -800744528#1 -800744528#1.8 -800744528#1.16 -800744528#1.37 -800744528#1.72 826314456#0 826314456#0.9 826314456#0.50 826314456#0.96 826314456#0.103 -6476313#2 -6476313#2.11 -6476313#2.29 -6476313#2.98 -6476313#2.99 -6476313#2.103 -6476313#2.107 164418944#4 164418944#4.7 164418944#4.8 164418944#4.29 164418944#4.51 164418944#4.95 -353690150#2 -353690150#2.8 -353690150#2.144 293775902#0 293775902#0.7 293775902#0.52 293775902#0.90 293775902#4 293775902#4.6 293775902#4.49 293775902#4.88 293775902#8 293775902#8.6 293775902#8.49 293775902#8.91 293775902#12 293775902#12.3 293775902#12.50 -6481166#11 -6481166#11.122 -6481166#11.125 6464138#14 -481291488#1 -481291488#0 -481291488#0.69 -481291488#0.82 243339793#0 243339793#0.48 460419011#1 460419011#1.11 6464126#3 6464126#3.49 -801995081#0 243339793#4 -460419028#4 -460419028#3 243349338#0 243349338#0.18 243349338#1 243349338#2 185485132#5 185485132#5.98 256994205#2 256994205#2.24 256994205#2.72 -6494975#4 -6494975#4.53 243349338#5"/>
</vehicle>
<vehicle id = "veh14" type= "veh_passenger" depart="10815" >
<route edges =" 817434294 817434294.10 817434294.36 817434294.44 817434294.63 817434294.119 6343949#0 6343949#0.7 6343949#0.86 6343949#3 6343949#3.9 6343949#3.49 6343949#6 -65588100#1 -65588100#1.65 -826314455#3 -826314455#3.64 -826314455#3.71 -826314455#3.76 -826314455#3.90 -826314455#3.118 -349901821 -826314456#4 -826314456#4.12 -826314456#4.19 -826314456#4.65 -826314456#4.106 -337673339 -337673337 185882764 185882764.13 185882764.14 185882765 185882765.16 185882765.26 185882765.30 185882765.31 -243338979#28 -243338979#28.13 -243338979#28.49 -243338979#28.142 -243338979#28.143 893866065#3 893866065#3.6 893866065#3.48 893866065#3.88 -353690148#6 -353690148#6.8 -353690148#6.122 893866060#8 893866060#8.7 893866060#8.65 893866060#8.89 6464138#0 6464138#0.7 6464138#0.53 6464138#0.92 6464138#4 6464138#4.6 6464138#4.51 6464138#4.88 -6440371#5 -6440371#5.4 -6440371#5.6 -6440371#5.7 -6440371#5.119 -6440371#5.121 353690154#8 353690154#8.7 353690154#8.42 353690154#8.50 353690154#8.92 353690154#12 353690154#12.6 353690154#12.32 -6481166#9 -6481166#9.8 486874837#1 486874837#2 486874837#2.47 -460419014 -460419014.67 -6425689#1 -6425689#1.49 -6447971#8 -263669069#0 -6481166#6 6467507#3 -6447971#5 6507809#4 6507809#5 6507809#5.51 6507809#7 6507809#7.46 6507809#7.87 6507809#10 6507809#10.8 6507809#10.91 6507809#13 6507809#13.9 6507809#13.77 6452520#6 6452520#6.7 185485127#0 185485127#1 185485127#2 185485127#2.70 -336908264#1 -336908264#1.10 -336908264#1.13 -336908264#1.35 -336908264#1.123 -336908264#1.210 926425191#3 6391677 8071924#1 8071924#1.18 8071924#1.30 8071924#4 6501822#7 6441276#0 6441276#0.41 359671039#0 -6336174#1 -6336174#1.42 6501822#10 -6464126#18 -6464126#18.45 795671505#2 243349338#8 243349338#9 243349338#10 243349338#11 243349338#11.79 -6506505#7 -6506505#7.50 -6464130#4 -6449970#10 6336174#4 6336174#5 -243349331#0 -243349331#0.131 32143377#0 32143377#0.40 -243349941#2 -6425683#3 -6425683#3.40 -6425683#1 -6506505#2 -6463541#4 -6463541#4.39 -6463541#4.42 -6463541#1 -6396312#1 -185485127#10 -6501822#2 -6501822#1 -6501822#0 -6501822#0.165 256996977#8 620762211#0 620762211#0.4 620762211#0.8 620762211#0.77 620762211#1 620762211#1.10 620762211#1.36 620762211#1.73 620762211#1.115 620762211#1.170 620762211#1.178 6335280 6335280.16 6335280.119 6335280.125 -661086630#4 -661086630#4.5 -661086630#4.8 -661086630#4.25 -661086630#4.63 -6354836#4 -256997441#7 -256997441#7.46 -256997441#5 -256997441#5.36 -256997441#5.83 -14374224#3 -14374224#3.37 -14374224#3.41 -14374224#3.85 295783215#1 -6489809#2 -6415147#5 428247193#3 428247193#3.27 486632638#0 486632638#0.14 486632638#0.27 -428247197#1 -428247197#1.9 -336908264#3 -169917351#27 -169917351#27.11 -169917351#27.76 -6494970#2 -6494970#2.4 -6494970#2.100 6358721#0 6358721#0.9 -6415147#3 6497081#2 6497081#2.38 6497081#2.47 6497081#2.53 6497081#2.60 6497081#2.67 6497081#2.70 6497081#2.74 6497081#2.81 6497081#2.120 6497081#6 6497081#6.44 6497081#8 6497081#9 6497081#9.126 369455641#1 369455641#1.28 369455641#1.78 -512126023#7 -512126023#7.8 -512126023#7.19 -512126023#7.31 -512126023#7.44 -512126023#7.91 -512126023#7.107 -512126023#7.111 -512126023#7.245 6496652#0 6496652#0.8 6496652#2 6496652#2.75 6351337#3 6351337#3.8 6351337#3.120 6351337#3.123 -754699003#4 -754699003#4.5 -6367253#5 -6367253#4 -6367253#4.7 -6367253#4.119 -6367253#1 -6367253#1.137 -6467368#2 -6467368#0 -185483738#2 -185483738#2.93 -6371720#5 -6371720#5.41 157167355#0"/>
</vehicle>
<vehicle id = "veh15" type= "veh_passenger" depart="10815" >
<route edges =" -814326475#2 -814326475#2.9 -814326475#2.24 -814326475#2.41 -814326475#2.70 -814326475#2.91 -723013181#2 -723013181#2.9 -723013181#2.18 -723013181#2.38 -723013181#0 -332601014#3 -332601014#3.31 -332601014#3.36 -332601014#3.42 -428246436#1 -428246436#1.13 -428246436#1.22 -428246436#1.37 -808907363#3 -808907363#3.25 -808907363#3.35 -808907363#3.48 -808907363#3.53 -808907363#3.61 -6447455#5 -6447455#5.3 -6447455#5.8 -6447455#5.47 -6447455#1 -6447455#1.85 -6447455#1.90 6461453#3 6461453#3.11 6461453#3.61 6461453#3.77 6461453#3.91 -6415868#4 -6415868#4.9 -6349123#6 -6349123#6.48 -6349123#6.62 -6349123#6.115 -723052304#0 6511393#2 6511393#2.9 6511393#2.43 6511393#2.76 6511393#2.92 6511393#7 6343952#2 6349123#8 -6430733#4 -6430733#4.10 8071579 6474762#0 6474762#0.47 6374789#0 6374789#0.39 6374789#0.75 6374789#0.100 6374789#3 6374789#3.12 6374789#3.121 6384350#12 6384350#12.6 6384350#12.22 6384350#12.25 6384350#12.26 6384350#12.30 6384350#12.34 6384350#12.43 6384350#12.47 6384350#12.53 6384350#12.55 6384350#12.58 6384350#12.61 6384350#12.70 171739214#0 171739214#0.4 171739214#0.56 752851600#4 752851600#4.6 752851600#4.8 752851600#4.28 752851600#4.34 752851600#4.35 752851600#4.38 752851600#4.44 752851600#4.97 6464391#3 6464391#3.6 6464391#3.75 6358524#6 6358524#6.5 6358524#6.55 -6414229#11 -6374789#10 -6374789#10.121 6464391#9 6464391#9.7 6464391#9.49 6464391#9.91 -749754758#4 -749754758#4.4 -749754758#4.120 -6384350#7 -6384350#7.9 -6384350#7.49 -6384350#7.88 -6384350#3 -6384350#3.9 -6384350#3.48 -6384350#3.94 -6508650#2 -6508650#2.140 -6508650#2.252 -256993082#5 -256993082#5.11 -256993082#3 -256993082#3.4 -256993082#3.32 -256993082#3.38 -395928755#1 -395928755#1.9 -65588116#5 -65588116#5.12 -65588116#5.38 -65588116#5.44 -65588116#5.64 -65588116#5.81 -65588116#1 -65588116#1.113 -460423541#1 -460423541#1.113 -6522850#4 -6522850#4.47 -6522850#4.62 -6522850#4.109 -6522850#4.114 -6522850#4.122 -912290518#12 -912290518#12.6 -912290518#12.9 -912290518#12.11 -912290518#12.12 -912290518#12.53 -912290518#7 -912290518#7.59 -912290518#5 -912290518#5.5 -912290518#5.37 -912290518#5.42 -912290518#5.62 -912290518#5.70 -912290518#2 -912290518#2.2 -912290518#2.24 -912290518#2.91 -912290518#2.94 -165086027#1 -165086027#1.2 -165086027#1.5 -759056491 -759056491.4 -759056491.8 -759056491.13 -759056491.17 -759056491.21 -759056491.26 -759056491.41 -759056491.81 -759056491.83 -759056491.88 -337673342#5 -337673342#5.3 -337673342#5.9 -337673342#5.13 -337673342#5.21 -337673342#5.35 -337673342#5.72 -607691082#1 -607691082#0 -6475815#3 -6475815#3.2 -6475815#3.17 -6475815#3.46 -428089348#3 -428089348#3.15 -428089348#3.21 -428089348#3.28 332223491#0 332223491#0.12 6438604#0 6438604#0.3 6438604#0.6 6438604#0.8 6438604#0.10 6438604#0.11 6438604#0.13 6438604#0.44 6438604#0.60 -22927969#14 -22927969#14.8 -22927969#14.47 -22927969#14.89 293753570#6 293753570#6.10 293753570#6.38 293753570#6.84 293753570#6.86 -368560864#2 -368560864#2.7 -368560864#2.11 -368560864#2.84 -368560864#2.86 -368560864#2.88 -6462029#17 -6462029#17.2 -6462029#17.5 -6462029#17.7 -6462029#17.45 -6462029#17.88 -6511397#10 -6511397#10.7 -6511397#10.83 -6511397#7 -6511397#7.8 -6511397#7.39 -6511397#7.86 -6511397#3 -6511397#3.9 -6511397#3.38 -6511397#3.82 428089354#0 428089354#0.9 428089354#0.35 428089352#0 428089352#0.34 -293753570#2 -293753570#2.9 -293753570#2.83 293753571#0 293753571#0.5 293753571#0.20 293753571#0.24 -353690151#2 -353690151#2.9 -353690151#2.22 -353690151#2.24 -353690151#2.39 -353690151#2.72 -353690151#2.92 -433500388#1 -433500388#1.11 -433500388#1.46 -433500388#1.73 -433500388#1.113 -433500388#1.115 -428088900#1 -428088900#1.10 -428088894#1 -428088894#1.25 -428088883#1 -428088883#1.15 -428088897 -428088888 -737711647 -332223490#1 -332223490#1.19 6514305#0 6514305#0.3 6514305#0.4 6514305#0.9 6514305#0.14 6514305#0.34 6514305#0.54 353690159#1 353690159#1.50 353690159#1.92 -6343878#11 -6343878#11.8 -6343878#11.104 -6463530#9 -6463530#9.9 -6463530#9.49 -6463530#9.91 -6456044#5 -6456044#5.7 -6456044#5.86 6467490#0 6467490#0.7 6467490#0.49 6467490#0.78 -401497115 -401497115.113 -401497115.170 -401497115.214 -537677478#2 -537677478#2.10 -537677478#2.11 -537677478#2.28 -537677478#2.36 -6456046#3 -6456046#3.6 -6456046#3.36 -6456046#3.42 -6456046#3.49 -6456046#3.56 -6456046#3.62 -6456046#3.66 -6456046#3.71 -6456046#3.76 -6456046#3.92 -6456046#3.102 -6456046#3.109 -6456046#3.112 440890310 440890310.65 425646003#0 425646003#0.15 6476922#0 6476922#0.13 6476922#0.24 6476922#0.37 6476922#0.60 6476922#0.67 6413383#0 6413383#0.1 6413383#0.3 6413383#0.6 6413383#0.18 6413383#0.26 6413383#0.47 428233432#0 428233432#0.11 428233432#0.22 332223487#0 332223487#0.16 332223487#0.62 332223487#0.98 332223488 332223488.25 332223488.48 332223488.65 332223488.68 332223488.88 347092907#0 347092907#0.3 347092907#0.13 347092907#0.19 347092907#0.26 347092907#0.31 347092907#0.38 347092907#0.40 347092907#0.45 347092907#0.51 332223494#0 332223494#0.18 332223494#0.35 332223494#0.144 332223494#0.171 22760519#0 22760519#0.7 22760519#0.27 22760519#3 22760519#3.9 22760519#3.21 22760519#3.33 22760519#3.91 965874293#0 965874293#0.9 965874293#0.40 965874293#2 965874293#2.45 -749863323#6 -749863323#6.8 -749863323#6.39 -749863323#6.144 -749863323#6.187 6506833#20 6506833#20.8 6506833#20.47 6506833#20.85 263712957#13 263712957#13.7 263712957#13.54 263712957#13.186 844067889#0 844067889#0.8 844067889#0.47 844067889#0.85 844067889#4 844067889#4.8 844067889#4.67 844067889#4.77 844067889#4.80 -8044210#8 -8044210#8.8 -8044210#8.117 -8044210#5 -8044210#5.6 -8044210#5.33 -8044210#5.40 -8044210#5.46 -8044210#5.72 -8044210#5.73 -8044210#1 -8044210#1.9 -8044210#1.90 -8044210#1.95 6445481#0 6445481#0.3 6445481#0.6 6445481#0.68 6445481#0.72 -6371699#12 -6371699#12.3 -6371699#12.7 -6371699#12.71 -6371699#12.94 -6371699#12.106 -6388742#15 -6388742#15.8 -6388742#15.46 -6388742#15.84 263712958#0 263712958#0.8 263712958#0.45 263712958#0.101 263712958#0.114 263712958#0.117 263712958#0.119 6445479#0 6445479#0.4 6445479#0.8 6445479#0.186 965874292#10 965874292#10.35 965874292#12 965874292#12.8 965874292#12.69 158123767#0 158123767#0.10 158123767#0.11 158123767#0.50 158123767#0.74 158123767#0.86 158123767#0.115 158123767#0.122 158123767#0.134 158123767#0.139 158123767#0.166 795669781 795669781.52 795669781.56 460421481#1 460421481#1.61 460421481#1.85 -428247194#1 -428247194#1.9 -428247194#1.28 -157167355#3 -157167355#3.5 -157167355#3.43 -157167355#0"/>
</vehicle>
<vehicle id = "veh16" type= "veh_passenger" depart="14420" >
<route edges =" -813722269#3 -813722269#3.7 -813722269#3.48 -813722269#3.84 -813722269#3.86 620762213#0 620762213#0.9 620762213#0.88 620762212#0 620762212#0.8 620762212#0.52 620762212#3 6430729#6 6430729#6.47 6430729#6.48 6430729#9 6430729#9.48 6430729#11 6430729#11.51 65588093#3 292812445#3 292812445#3.49 292812445#5 292812445#5.45 292812445#7 292812445#7.46 -620762224#1 -620762224#0 -66558981#7 -66558981#7.65 -66558981#7.83 -66558981#7.105 -66558981#7.123 243349944#6 -481291488#4 -481291488#4.47 40416132#0 40416132#0.19 40416132#1 40416132#1.90 256994206#0 256994206#0.8 256994206#0.43 256994206#0.60 396055524#0 396055524#0.9 396055524#0.30 396055524#0.54 396055524#0.65 256994205#0 256994205#0.67 256994205#1 185485132#7 185485132#7.51 6447445#7 6447445#7.46 6494975#7 6494975#8 6494975#9 6494975#9.108 6494975#9.119 805658294#2 805658294#2.39 805658294#4 805658294#4.48 6472289#4 6349133#0 6463035#10 6463035#10.48 6463035#12 6463035#12.7 -6521828#3 -6521828#3.7 -6521828#3.107 -6521828#3.133 -359671039#10 -359671039#10.86 805658294#9 805658294#9.71 808266757#0 808266757#0.7 -352434874#3 -352434874#2 -352434874#1 6447445#17 263665040#0 263665040#0.42 263665040#0.45 263665040#0.101 243349944#29 -243349941#10 -243349941#10.85 -243349941#8 -243349941#7 -243349941#7.26 -352434864#1 -352434864#1.74 -243349331#3 -243349331#3.51 -243349331#3.121 -6464130#5 -6464130#4 -6449970#10 -6449970#9 -6449970#8 -6449970#7 -6449970#7.42 -6449970#5 -6449970#4 -6449970#3 -6449970#2 -6449970#1 -6449970#1.18 -6507818#2 6396312#0 6396312#1 -6463541#0 6501822#4 185485117#2 6396312#3 6396312#3.157 -8071924#5 -8071924#4 6472293#6 6472293#6.106 795671506#0 795671506#0.46 6501822#9 6501822#9.6 6501822#10 6501822#11 6501822#12 243349338#9 359671039#3 359671039#4 359671039#4.117 6447445#15 532125609#1 -243349944#26 -243349944#25 160624558#1 -243349945#16 -243349945#16.50 -6472289#2 -243349944#22 -243349944#22.50 -22760521#3 -22760521#2 -22760521#2.81 -22760521#2.121 428246847#0 428246847#0.8 428246847#0.22 6386110#0 6386110#0.16 6386110#0.25 6386110#0.55 -243349338#6 -243349338#6.14"/>
</vehicle>
<vehicle id = "veh17" type= "veh_passenger" depart="14420" >
<route edges =" -816616074#1 -816616074#1.10 -816616074#1.14 -816616074#1.119 428341734#4 428341734#4.8 428246439#0 428246439#0.14 428246438#0 428246438#0.8 428246440#0 428246440#0.62 800744529#0 800744529#0.7 800744529#0.52 800744529#0.89 825336588#0 825336588#0.7 96029553#0 96029553#0.9 96029553#0.15 96029553#0.59 -893866066#2 -893866066#2.7 -893866066#2.122 32135548#0 32135548#0.6 32135548#0.48 32135548#0.53 32135548#0.64 32135548#0.89 32135548#0.90 -22917111#22 -22917111#22.9 -22917111#22.144 293775902#4 293775902#4.6 293775902#4.49 293775902#4.88 293775902#8 293775902#8.6 293775902#8.49 293775902#8.91 -6512920#7 -6512920#7.4 -6512920#7.122 -6512920#7.124 -6512920#5 -6512920#5.6 -6512920#5.9 -6512920#5.119 -6512920#5.124 353690154#12 353690154#12.6 353690154#12.32 -6481166#9 -6481166#9.8 486874837#1 -6447971#9 -6447971#8 263669069#1 263669069#1.41 263669069#1.48 263669069#1.70 460419009#0 460419009#0.64 460419009#0.93 6425689#2 6425689#2.48 6380913#14 801995082 243339793#4 243339793#5 -6360256#0 -6360256#0.8 486875123#0 486875123#0.56 486875123#0.88 481291012#0 481291012#0.24 481291012#0.32 185485132#2 185485132#2.104 243339793#11 243339793#11.47 6494975#1 6494975#1.9 6494975#2 243349338#5"/>
</vehicle>
<vehicle id = "veh18" type= "veh_passenger" depart="14420" >
<route edges =" 817434294 817434294.10 817434294.36 817434294.44 817434294.63 817434294.119 816616072#4 816616072#4.7 816616072#4.62 816616072#4.121 816616072#8 816616072#8.6 816616072#8.121 6346526#0 6346526#0.6 6346526#0.99 6346526#0.121 6346526#4 6346526#4.7 -171739214#11 -171739214#10 -337668911#3 -337668911#3.39 -337668911#3.92 -337668911#3.122 -6463013#2 -6463013#2.8 -6463013#2.38 -6463013#2.42 -6463013#2.60 -6463013#2.70 -6463013#2.90 428246435#0 428246435#0.10 428246433 428246433.72 428246432#0 428246432#0.13 171739214#8 8071890#0 8071890#0.56 -158882558 -896104580#1 -896104580#1.68 428098978#0 428098978#0.6 428098982 428314470 428314464 428098977 -6346308#11 -6346308#11.43 -6346308#11.48 -6346308#9 -6346308#9.33 -6346308#9.41 -6346308#6 -6346308#5 -6346308#5.48 749754758#10 6368518#4 6368518#4.46 8071894#0 6358515#0 8071895#0 6384935#2 6384935#2.57 6384935#4 6384935#4.199 8071658#0 8071658#0.45 8071658#2 -428098976#3 -428098976#3.179 -428098976#3.187 6428544#6 -337099385#1 -6523130 -6400858#1 -6400858#1.92 -6400858#1.135 -6400858#1.139 -6400858#1.143 -6400858#1.147 -158882561#3 -158882561#2 -158882561#2.11 -158882561#2.28 -158882561#2.46 -158882561#2.60 158882511#0 158882511#1 158882511#1.35 158882511#3 158882511#4 -160552467#9 -158882517#3 -158882517#2 -158882517#1 -6368665#2 158882505#2 -6346524#0 171739214#13 171739214#14 -160552467#5 -160552467#5.18 -160552467#5.25 -160552467#5.30 -160552467#5.63 -160552467#5.85 -160552467#0 -620762212#5 -620762212#5.7 -620762212#3 -620762212#2 -620762212#2.76 -620762212#2.120 -800744530#5 -800744530#5.9 -800744530#5.19 -800744530#5.73 -800744530#5.84 -800744530#5.118 -800744528#1 -800744528#1.8 -800744528#1.16 -800744528#1.37 -800744528#1.72 -337673339 -337673337 -337673338#1 -337673338#1.9 -395714916#1 -395714916#1.12 -568043367 -568043367.41 -568043367.79 -293775903#2 -293775903#2.10 -293775903#2.37 -293775903#2.89 -293775903#2.118 -475161306#1 -475161306#1.9 -475161306#1.92 -475161306#1.120 353690155#0 353690155#0.10 353690155#0.51 353690155#0.58 353690155#0.90 353690157#0 353690157#0.5 353690157#0.19 353690157#0.47 353690157#0.72 353690157#0.87 893866056#0 893866056#0.8 893866056#0.64 893866056#0.88 353690154#0 353690154#0.7 353690154#0.49 353690154#0.90 353690154#4 353690154#4.6 353690154#4.49 353690154#4.54 353690154#4.87 353690154#8 353690154#8.7 353690154#8.42 353690154#8.50 353690154#8.92 -6512920#3 -6512920#3.8 -6512920#3.9 -6512920#3.19 -6512920#3.59 -6512920#3.92 -901419468#4 -901419468#4.51 -901419468#4.132 -901419468#4.164 -901419468#4.186 -901419468#4.196 -901419468#4.197 -901419467#2 -901419467#2.9 -901419467#2.49 -901419467#2.54 -901419467#2.71 -901419467#2.91 -353690160#5 -353690160#5.7 -353690160#5.91 -22917111#2 -22917111#2.10 -22917111#2.197 876005346#3 876005346#4 876005346#4.5 876005346#4.68 901474741#0 901474741#0.6 901474741#0.85 901474741#0.87 6467507#0 6467507#0.7 6467507#0.88 6481166#6 263669069#0 -6447971#7 -6447971#6 6467507#4 6467507#4.48 -6515975#6 6507809#5 6507809#5.51 -6380913#4 169917351#9 169917351#9.48 169917351#9.87 169917351#12 169917351#12.9 169917351#12.42 169917351#12.90 169917351#16 169917351#16.9 169917351#16.77 -6452520#2 -6452520#2.4 -6452520#2.101 6449462#0 6449462#0.9 6449462#0.46 6415147#2 6497081#2 6497081#2.38 6497081#2.47 6497081#2.53 6497081#2.60 6497081#2.67 6497081#2.70 6497081#2.74 6497081#2.81 6497081#2.120 6497081#6 6497081#6.44 -6414318#2 -6414318#2.8 795669782#2 795669782#3 795846818#0 795846818#0.1 -460418978#2 -460418978#2.5 -460418978#2.73 22917667#0 22917667#0.7 22917667#0.103 22917670#7 22917670#7.7 22917670#7.71 795846818#5 795846818#5.5 795846818#5.174 481291011#0 481291011#0.6 481291011#0.65 481291010#0 481291010#0.19 481291010#0.23 481291010#0.30 481291010#0.133 481291010#3 481291010#3.6 481291010#3.100 -6497081#10 -6497081#10.7 6371720#3 157167355#0"/>
</vehicle>
<vehicle id = "veh19" type= "veh_passenger" depart="14420" >
<route edges =" -814326475#2 -814326475#2.9 -814326475#2.24 -814326475#2.41 -814326475#2.70 -814326475#2.91 -6456052#5 -6456052#5.10 -6456052#5.36 -6456052#5.120 -6456052#1 -6456052#1.10 -6456052#1.62 -337673342#0 6343890#0 6343890#0.54 6343890#0.56 6343890#0.58 6343890#0.59 6343890#0.61 -6475815#6 -6475815#6.16 -6475815#4 -6475815#3 -6475815#3.2 -6475815#3.17 -6475815#3.46 -428089348#3 -428089348#3.15 -428089348#3.21 -428089348#3.28 -428341218#2 -428341218#2.3 -428341218#2.9 -65588069#1 -65588069#1.13 -428089351#1 -428089351#1.16 293753570#3 293753570#3.10 293753570#3.31 293753570#3.45 293753570#3.54 293753570#3.85 -22927969#10 -22927969#10.10 -22927969#10.51 -22927969#10.91 6511397#4 6511397#4.7 6511397#4.54 6511397#4.85 -759056694#6 -759056694#6.7 -759056694#6.25 -759056694#6.49 -759056694#6.89 -759056694#2 -759056694#2.7 -759056694#2.25 -759056694#2.48 -738637224 -738637224.5 -738637224.9 -738637224.14 -738637224.23 -738637224.30 -165042063#1 -165042063#1.3 -165042063#1.13 -165042063#1.15 165086027#0 165086027#0.10 165086027#0.12 158612542#0 158612542#0.8 158612542#0.40 158612542#0.49 158612542#0.58 158612542#0.111 -6447455#1 -6447455#1.85 -6447455#1.90 -723052304#2 -723052304#2.8 -723052304#0 -6511393#1 -6511393#1.119 -6511397#14 -6511397#14.3 -6511397#14.5 -6511397#14.7 -6511397#14.9 -6511397#14.18 -6511397#14.65 -6462029#13 -6462029#13.9 -6462029#13.48 -6462029#13.90 -6462029#9 -6462029#9.9 -6462029#9.87 -6462029#6 -6462029#6.11 -6462029#6.48 -6462029#6.90 -6462029#2 -6462029#2.9 -6462029#2.86 -6462029#2.88 -6462029#2.90 -6462029#2.92 -65588103#1 -65588103#1.2 -65588103#1.4 -65588103#1.6 -65588103#1.8 -65588103#1.9 -65588103#1.12 -65588103#1.81 465797044#0 465797044#0.7 465797044#0.21 465797044#0.32 465797044#0.73 465797044#0.86 788424590#2 788424590#2.7 788424590#2.88 -759056694#16 -759056694#16.8 -759056694#16.23 -759056694#16.28 -759056694#16.42 -759056694#16.60 -759056694#16.85 -749622503#22 -749622503#22.9 -749622503#22.51 -749622503#22.84 -749622503#18 -749622503#18.7 -749622503#18.55 -749622503#18.81 -428227803#1 -428227803#1.9 -428227860 -428227860.14 -428227828 -428227842 -428227822#1 -428227822#1.17 -428227833#1 -428227833#1.13 -428227838 -428227854#1 -428227854#1.5 -428227818 -428227865#1 -428227865#1.18 338073583#14 338073583#14.11 338073583#14.23 338073583#14.40 338073583#14.60 338073583#14.86 -80574890#3 -80574890#3.8 -80574890#3.48 -80574890#3.78 -80574890#3.88 -621283347#4 -621283347#4.8 -621283347#4.61 -621283347#4.75 -621283347#4.82 -169511255#15 -169511255#15.10 -169511255#15.84 -706262355#2 -706262355#2.9 -706262355#2.15 -706262355#2.50 -8111067#8 -8111067#8.8 -8111067#8.39 -8111067#8.57 -8111067#8.85 6394322#4 6394322#4.4 6394322#4.52 6394322#4.86 6394322#4.89 -169511255#7 -169511255#7.7 -169511255#7.26 -169511255#7.83 263672096#8 263672096#8.8 263672096#8.49 263672096#8.68 263672096#8.88 338073583#4 338073583#4.8 338073583#4.15 338073583#4.79 338073583#4.84 338073583#7 338073583#7.8 338073583#7.14 338073583#7.85 263672156#3 263672156#3.7 263672156#3.57 263672156#3.86 369877031#0 369877031#0.10 369877031#0.31 369877031#0.46 369877031#0.88 -749622503#8 -749622503#8.7 -749622503#8.63 -749622503#8.83 -749622503#4 -749622503#4.84 -749622503#2 -749622503#2.9 -749622503#2.29 -749622503#2.64 -749622503#2.84 -369877039 -369877039.36 -369877039.55 -428088903#1 -428088903#1.15 428231018#0 428231018#0.12 428231018#0.30 465971497#0 465971497#0.10 465971497#0.34 369877037#0 369877037#0.9 369877037#0.83 537686684#0 537686684#0.43 537686684#0.53 -332223489#3 -332223489#3.4 -332223489#3.15 -332223489#3.17 -332223489#3.21 -401497115 -401497115.113 -401497115.170 -401497115.214 -428233435 -460425668 -460425668.5 425646007#0 425646007#0.10 425646007#0.17 425646007#0.20 425646007#0.22 425646007#0.27 425646003#0 425646003#0.15 6465162#0 6465162#0.2 6465162#0.6 6465162#0.11 6465162#0.36 428233434 428233434.31 428233434.58 -739874554#2 -739874554#2.15 -739874554#2.40 -739874554#2.60 -739874554#2.67 622519661 622519661.8 739874553#0 739874553#0.66 739874553#0.80 739874553#0.88 333370569#0 333370569#0.6 333370569#0.13 333370569#0.37 333370569#0.43 333370569#0.66 333370569#0.94 333370569#0.155 333370569#0.178 333370566#0 333370566#0.32 6405076#0 6405076#0.10 6405076#0.18 6405076#0.21 6405076#0.58 6405076#0.79 6405076#0.81 347092915#0 347092915#0.8 347092915#0.32 347092915#0.44 347092915#0.89 347092915#0.182 347092915#6 347092915#6.6 347092915#6.44 347092915#6.87 347092915#10 347092915#10.9 347092915#10.68 347092915#10.90 -243338978#6 -243338978#6.8 -243338978#6.83 -22917663#18 -22917663#18.20 -22917663#18.54 -22917663#18.91 -22917663#14 -22917663#14.8 -22917663#14.71 -22917663#14.88 -6506833#4 -6506833#4.8 -6506833#4.38 -6506833#4.55 -6506833#4.83 256996974#3 256996974#3.6 256996974#3.29 256996974#3.56 256996974#3.86 256996974#6 256996974#6.9 256996974#6.21 256996974#6.40 256996974#6.89 256996974#11 256996974#11.6 256996974#11.33 256996974#11.65 6481166#0 6481166#0.6 6481166#0.73 6481166#0.104 6481166#4 6481166#5 6467507#3 -6447971#5 -6447971#4 -6447971#3 -6447971#3.29 -6447971#3.37 -6447971#3.61 256996978#0 256996978#0.7 256996978#0.68 6445835#0 6445835#0.41 -22917665#1 -22917665#1.88 881403606#4 881403606#4.53 881403608#2 881403608#2.2 881403608#2.5 881403608#2.8 881403608#2.11 881403608#3 881403608#3.2 881403608#3.5 881403608#3.8 881403608#3.11 976099002#0 976099002#0.34 976099002#0.40 976099002#0.64 965874292#7 965874292#7.8 965874292#7.41 965874292#10 965874292#10.35 965874292#12 965874292#12.8 965874292#12.69 158123767#0 158123767#0.10 158123767#0.11 158123767#0.50 158123767#0.74 158123767#0.86 158123767#0.115 158123767#0.122 158123767#0.134 158123767#0.139 158123767#0.166 795669782#0 795669782#0.54 6414318#1 6414318#1.86 6414318#3 -157167355#0"/>
</vehicle>
<vehicle id = "veh20" type= "veh_passenger" depart="18025" >
<route edges =" -813722269#3 -813722269#3.7 -813722269#3.48 -813722269#3.84 -813722269#3.86 569505974#0 569505974#0.10 569505974#0.37 816616073#0 816616073#0.78 6343949#3 6343949#3.9 6343949#3.49 620762212#3 6430729#6 6430729#6.47 6430729#6.48 6430729#9 6430729#9.48 -8071898#1 -8071898#1.60 -8071898#1.73 -8071898#1.89 -8071898#1.91 292812446#0 292812446#0.15 292812446#0.27 292812446#0.70 292812446#0.83 292812446#0.91 292812446#0.121 -6463027#1 -6463027#1.9 -6463027#1.45 -6463027#1.48 -6463027#1.50 -6463027#1.52 -6463027#1.54 -6463027#1.56 -6463027#1.58 -6463027#1.60 -6463027#1.62 -6463027#1.63 -6463027#1.65 -337668916#10 6403874#1 6403874#1.38 -171739214#17 -171739214#17.19 -171739214#17.44 -160552467#5 -160552467#5.18 -160552467#5.25 -160552467#5.30 -160552467#5.63 -160552467#5.85 -337668916#7 -337668916#7.49 -337668916#7.60 -337668916#5 -337668916#5.44 -337668916#5.90 -337668916#3 -337668916#3.10 -337668916#3.49 -337668916#3.92 337668911#0 337668911#0.7 337668911#0.37 337668911#0.90 -171739214#9 8071890#0 8071890#0.56 621283351#0 621283351#0.54 621283351#0.62 6464391#0 6464391#0.12 6464391#0.77 752851600#8 752851600#8.6 752851600#8.88 6414229#13 6414229#13.35 6414229#13.70 896104580#0 896104580#0.9 -896104581#1 -896104581#1.6 158882511#0 -6368665#4 -6368665#4.121 -6368665#2 -6368665#1 -6368665#1.49 -6368665#1.91 -6368665#1.93 171739214#11 171739214#12 171739214#13 6411908#2 6411908#2.39 158882505#4 158882505#4.31 160552467#8 -158882517#3 6411908#4 -158882511#3 6346524#3 6346524#3.79 6346524#3.88 6346524#3.93 6346524#3.98 6346524#3.103 6346524#3.111 6346524#3.116 6346524#3.121 6346524#4 6346524#4.124 6346524#4.138 -263668130#0 337099385#1 6428544#7 6428544#7.39 6428544#7.45 6428544#7.51 6428544#7.57 6428544#7.76 6428544#7.83 6428544#11 6428544#11.45 32143939 6323849#0 6323849#0.39 6323849#2 6323849#3 6323849#3.9 6323849#3.21 6323849#3.30 6323849#3.53 6323849#3.67 -6403883#6 6345333 6457203#15 6457203#15.68 975126260#0 975126260#0.49 -6505136#16 6368504#5 6368504#5.48 -603522174#0 603522173#0 603522173#0.48 -6513783#9 -6513783#8 -6513783#7 -37657905#2 -37657905#2.50 -37657905#2.91 -6464042#9 -6464042#9.6 8111709#4 8111709#4.49 -6513783#5 -6513783#4 -6513783#4.21 -6513783#4.23 -6513783#4.43 -6513783#4.80 6463017#5 -6381494#1 -6381494#0 -620762224#1 -6430729#18 -6430729#18.53 -525497324#7 -525497324#7.39 -525497324#7.54 -525497324#7.112 -6343949#13 -6343949#13.50 -6343949#11 -6343949#11.49 -65588093#1 -65588093#1.103 -65588093#1.123 -65588093#1.126 -65588093#1.130 739843348#0 739843348#0.4 739843348#0.9 620762218#0 620762218#0.55 620762218#0.66 620762218#0.68 620762218#0.81 620762218#3 620762218#3.7 -525497324#2 243349944#4 243349944#4.53 243349944#6 481291488#5 481291488#5.46 481291488#5.56 481291488#5.102 481291488#5.127 481291488#5.144 337739271#0 337739271#0.10 337739271#0.13 337739271#1 337739271#1.6 6343960 6343960.10 6343960.16 6343960.20 6343960.24 -337739268 -337739268.13 292812445#11 292812445#11.49 481291015#0 481291015#0.20 481291015#0.59 737709039#0 737709039#0.8 737709039#0.14 6383185#0 6383185#0.82 6383185#0.151 6383185#3 6383185#3.8 6383185#5 6383185#6 6383185#7 6383185#8 6383185#8.23 6383185#8.67 6383185#8.93 6383185#8.141 476409333#2 476409333#2.45 6460085#12 6460085#12.26 735164737 735164737.10 735164737.15 6451291#0 6451291#0.7 6451291#0.16 6451291#0.45 735164739 735164739.21 735164739.27 735164739.31 -394736758#7 -394736758#7.6 -394736758#7.14 -394736758#7.26 -394736758#7.93 -394736758#6 -394736758#6.26 -394736758#5 -394736758#4 -394736758#4.104 -394736758#1 -394736758#1.15 -394736758#1.42 -394736763 -6448615#9 -6448615#8 -6448615#7 -6448615#6 -6448615#6.24 -6448615#6.44 -6448615#6.47 -6448615#6.70 6459736#2 6459736#2.37 6459736#2.48 6459736#2.60 6459736#2.65 6459736#2.73 -6495798#8 -6495798#8.42 -6495798#6 -6495798#6.39 -6523125#1 -65588097#9 -65588097#8 -65588097#8.39 476409332#5 476409332#6 6495798#3 6345330#2 -170683288#3 -170683288#3.39 -170683288#3.69 -170683288#3.76 476409332#9 476409332#9.68 -6349126#4 -6349126#4.29 -6349126#4.47 -6349126#4.62 -6349126#4.68 -6349126#4.76 -6349126#4.79 -6349126#4.104 -854081622#0 -854081622#0.13 -19000995#2 -19000995#2.7 -19000995#2.29 6414237#0 6414237#0.11 6414237#1 -6353172#1 -40416130#2 -6353867#0 170683665#8 -6353177#4 -6353177#3 -6353177#3.7 -6353177#3.98 -6353177#3.134 -336908262#3 -336908262#3.49 6349133#0 6349133#1 -170683665#6 -170683665#6.49 -170683665#4 -170683665#4.47 6356676#2 6356676#2.67 6356676#2.82 6356676#2.92 6356671#0 6356671#0.13 6356671#0.39 -428315591#0 -428315592#5 6495798#0 6495798#0.9 6495798#0.43 170683231#3 170683231#4 170683231#4.50 170683231#4.58 -65588097#5 -65588097#5.172 -65588097#3 -65588097#3.73 6384373#5 6384373#5.40 6384373#5.50 6384373#5.90 -6448612#5 -6448612#5.30 -6448612#3 -6448612#3.16 6463035#3 -6495801#0 -805680044#7 -805680044#7.48 -805680044#7.91 -22917113#10 -22917113#10.7 -22917113#10.129 -22917113#10.132 -22917113#7 -22917113#7.10 -22917113#7.19 -243349945#5 -243349945#5.47 -243349945#5.52 -243349945#5.91 -243349945#2 -243349945#2.8 -243349945#2.86 -396055523#6 -396055523#6.27 -396055523#6.60 -337739269#4 -337739269#4.9 -801995081#6 -801995081#6.9 243349944#9 243349944#10 243349944#10.7 243349944#10.84 -6360256#7 -6360256#7.5 6447445#3 6447445#3.51 22917113#5 243349944#15 243349944#15.48 243349944#17 243349944#17.50 6494975#8 243349945#11 243349945#11.47 -243349942#0 -243349942#0.28 -22760521#3 -6447445#10 -6447445#10.48 -6494975#6 -6494975#6.81 256994205#3 428246847#0 428246847#0.8 428246847#0.22 6386110#0 6386110#0.16 6386110#0.25 6386110#0.55 -243349338#6 -243349338#6.14"/>
</vehicle>
<vehicle id = "veh21" type= "veh_passenger" depart="18025" >
<route edges =" -816616074#1 -816616074#1.10 -816616074#1.14 -816616074#1.119 428341734#4 428341734#4.8 428246439#0 428246439#0.14 -569505978#1 -569505978#1.10 -569505979 -569505979.32 -569505979.79 337673338#0 337673338#0.14 337673337 337673339 826314456#0 826314456#0.9 826314456#0.50 826314456#0.96 826314456#0.103 349901821 826314455#0 826314455#0.11 826314455#0.39 826314455#0.53 826314455#0.57 826314455#0.65 65588100#0 65588100#0.63 6343949#7 8071898#3 620762214 -349901822#3 -349901822#3.58 96029553#0 96029553#0.9 96029553#0.15 96029553#0.59 -893866066#2 -893866066#2.7 -893866066#2.122 -353690150#2 -353690150#2.8 -353690150#2.144 293775902#0 293775902#0.7 293775902#0.52 293775902#0.90 -22917111#19 -22917111#19.8 -22917111#19.123 -22917111#19.125 -22917111#19.126 6464138#4 6464138#4.6 6464138#4.51 6464138#4.88 6464138#8 6464138#8.7 6464138#8.49 6464138#8.88 6464138#12 6464138#12.51 6464138#14 481291488#2 481291488#3 481291488#3.216 243349944#7 460419011#4 337739269#1 337739269#1.30 337739269#3 337739269#3.69 396055523#5 396055523#5.8 396055523#5.42 243349945#0 243349945#0.6 243349945#0.83 243349945#3 243349945#3.5 243349945#3.45 243349945#3.49 243349945#6 243349945#6.48 243349945#6.88 185485132#11 185485132#11.115 805658294#0 805658294#0.38 805658294#0.52 6494975#10 6494975#10.11 6494975#10.19 6356676#0 6463035#7 -279467136#0 -279467136#0.18 -279467136#0.24 336908262#0 336908262#0.48 -6472289#4 -6472289#3 -243349945#14 -243349945#14.50 -243349945#12 -243349945#12.49 -6494975#8 -243349944#18 -243349944#18.47 -243349944#16 -243349944#16.49 -22917113#5 -22917113#4 256994205#1 -185485132#6 -185485132#6.52 -243349338#2 -243349338#1 6360256#4 6360256#5 6360256#6 6360256#6.122 -243349944#12 -243349944#12.8 -243349944#12.85 -243349944#9 -801995081#5 -801995081#5.197 -801995081#5.209 -801995081#2 -801995081#2.109 6464126#5 460419028#4 243339793#5 -6360256#0 -6360256#0.8 486875123#0 486875123#0.56 486875123#0.88 -185485118#1 6514312#0 6514312#0.70 926425191#0 926425191#0.5 926425191#2 926425191#3 926425191#4 926425191#4.20 -6472293#3 -6472293#2 -6472293#1 -6472293#1.180 -6472293#1.202 6351349#0 6351349#0.4 6351349#0.39 6351349#2 642753173 -6354836#2 -6354836#2.29 6415147#8 -620762211#0 -620762211#0.9 -620762211#0.78 -620762211#0.82 6396314 6396314.4 -6507818#0 6501822#1 6501822#2 6501822#3 6501822#4 185485117#2 185485117#3 6449970#5 6425683#0 6506505#3 259277920#2 259277920#2.23 -6348024#4 6425683#2 6425683#2.41 243349941#2 243349941#3 243349941#4 243349941#5 243349941#6 243349941#6.114 243349941#8 6447445#21 6447445#21.41 6447445#21.75 6409640#11 6409640#12 6409640#13 6409640#13.62 6409640#13.65 -6512824 -6512824.3 -6512824.8 -6512824.65 -6512824.72 -243349941#12 -243349941#12.7 -243349945#21 -243349945#20 -243349945#19 -243349945#18 -359671039#6 -243349944#25 -243349944#24 -243349944#24.50 -6472289#1 6447445#12 6447445#12.47 6447445#14 6447445#15 -532125609#0 -438895608#1 -438895608#0 -438895608#0.27 -160624556 -160624556.131 -6501822#12 -6501822#11 -6464126#18 -6464126#18.45 -6464126#16 -6464126#16.47 6386110#4 6386110#4.26 -243339793#14 -243339793#14.51 6494975#1 6494975#1.9 6494975#2 243349338#5"/>
</vehicle>
<vehicle id = "veh22" type= "veh_passenger" depart="18025" >
<route edges =" 817434294 817434294.10 817434294.36 817434294.44 817434294.63 817434294.119 6343949#0 6343949#0.7 6343949#0.86 -816616073#1 -816616073#1.7 -569505974#1 -569505974#1.6 -569505974#1.33 -569505976#2 -569505976#2.9 -569505976#2.88 -569505976#2.115 -569505976#2.119 428246438#0 428246438#0.8 428246440#0 428246440#0.62 -800744528#1 -800744528#1.8 -800744528#1.16 -800744528#1.37 -800744528#1.72 -337673339 -337673337 -337673338#1 -337673338#1.9 -395714916#1 -395714916#1.12 -568043367 -568043367.41 -568043367.79 893866065#0 893866065#0.10 893866065#0.66 893866065#0.92 893866065#3 893866065#3.6 893866065#3.48 893866065#3.88 -353690148#6 -353690148#6.8 -353690148#6.122 893866060#8 893866060#8.7 893866060#8.65 893866060#8.89 -893866059#2 -893866059#2.7 -893866059#2.120 -893866059#2.121 -893866057 -893866057.8 -893866057.9 -893866057.122 460419029#0 460419029#0.7 460419029#0.51 460419029#0.53 460419029#0.89 460419029#5 460419029#5.8 460419029#5.52 460419029#5.91 460419029#9 460419029#9.7 460419029#9.45 486874837#0 486874837#1 -6447971#9 -6447971#8 -6447971#7 6463532#0 6463532#0.49 -6515975#7 -6467507#5 -6467507#5.50 -6447971#5 -6447971#4 169917351#6 169917351#7 169917351#7.49 -6380913#3 -6380913#3.7 -6380913#3.66 -6380913#3.103 256996975#0 256996975#0.50 256996975#0.62 256996975#0.65 256996975#0.91 256996976#0 256996976#0.11 256996976#0.20 256996976#0.46 256996976#0.79 256996976#3 256996976#3.7 256996976#3.76 6452520#0 6452520#0.8 6452520#0.105 169917351#19 169917351#19.6 169917351#19.71 -6523501#2 -6523501#2.5 -6523501#2.101 460421482#3 460421482#3.8 460421482#3.48 460421482#3.55 460421482#3.72 6358721#0 6358721#0.9 6415147#4 -428247193#2 -428247193#2.56 -428247193#2.61 -428247193#2.96 -428247193#2.117 -428247193#2.121 -428247193#2.140 -428247193#2.154 -428247195 -428247195.5 256997441#0 256997441#0.11 256997441#0.18 256997441#0.62 256997441#3 256997441#3.6 256997441#3.53 6351349#5 -185483733 -6414318#4 -6414318#3 6497081#8 6371720#3 157167355#0"/>
</vehicle>
<vehicle id = "veh23" type= "veh_passenger" depart="18025" >
<route edges =" -814326475#2 -814326475#2.9 -814326475#2.24 -814326475#2.41 -814326475#2.70 -814326475#2.91 -6456052#5 -6456052#5.10 -6456052#5.36 -6456052#5.120 -6456052#1 -6456052#1.10 -6456052#1.62 -607691082#1 6501701#2 6501701#2.50 6501701#2.60 -6475815#4 -6475815#3 -6475815#3.2 -6475815#3.17 -6475815#3.46 -428089348#3 -428089348#3.15 -428089348#3.21 -428089348#3.28 -353690151#5 -353690151#5.11 -353690151#5.12 -353690151#5.26 -353690151#5.83 -353690151#5.102 -353690151#2 -353690151#2.9 -353690151#2.22 -353690151#2.24 -353690151#2.39 -353690151#2.72 -353690151#2.92 -433500388#1 -433500388#1.11 -433500388#1.46 -433500388#1.73 -433500388#1.113 -433500388#1.115 -428088900#1 -428088900#1.10 -428088894#1 -428088894#1.25 -428088883#1 -428088883#1.15 -428088897 -428088888 -737711647 -332223490#1 -332223490#1.19 -428088887#1 -428088887#1.12 -428088892 -428088886#1 -428088886#1.24 -428088886#1.35 -428088886#1.45 -65588108#1 -65588108#1.18 -65588108#1.53 -332223489#3 -332223489#3.4 -332223489#3.15 -332223489#3.17 -332223489#3.21 -401497115 -401497115.113 -401497115.170 -401497115.214 -428233435 -460425668 -460425668.5 -6457806#2 -6457806#2.21 -6457806#2.25 -6457806#2.30 6465162#0 6465162#0.2 6465162#0.6 6465162#0.11 6465162#0.36 428233434 428233434.31 428233434.58 332223487#0 332223487#0.16 332223487#0.62 332223487#0.98 893872038 893872038.9 893872038.14 893872038.97 893872038.123 893872038.129 893872038.134 347092915#0 347092915#0.8 347092915#0.32 347092915#0.44 347092915#0.89 347092915#0.182 -6506833#10 -6506833#10.7 -6506833#10.19 -6506833#10.42 -6506833#10.46 -6506833#10.83 22917663#11 22917663#11.6 22917663#11.23 22917663#11.87 6465130#3 6465130#3.8 6465130#3.46 6465130#3.84 6465130#7 6465130#7.8 6465130#7.44 6465130#7.70 6465130#7.74 22760519#3 22760519#3.9 22760519#3.21 22760519#3.33 22760519#3.91 965874292#0 965874292#0.8 965874292#0.88 965874292#3 965874292#3.1 965874292#3.48 965874292#3.59 965874292#3.86 965874292#7 965874292#7.8 965874292#7.41 965874292#10 965874292#10.35 965874292#12 965874292#12.8 965874292#12.69 158123767#0 158123767#0.10 158123767#0.11 158123767#0.50 158123767#0.74 158123767#0.86 158123767#0.115 158123767#0.122 158123767#0.134 158123767#0.139 158123767#0.166 795669782#0 795669782#0.54 795669782#2 795669782#3 795846818#0 795846818#0.1 460418978#3 460418978#3.9 460418978#3.49 -6497081#10 -6497081#10.7 -6497081#8 6414318#3 -157167355#0"/>
</vehicle>
<vehicle id = "veh24" type= "veh_passenger" depart="21630" >
<route edges =" -813722269#3 -813722269#3.7 -813722269#3.48 -813722269#3.84 -813722269#3.86 569505974#0 569505974#0.10 569505974#0.37 816616073#0 816616073#0.78 6343949#3 6343949#3.9 6343949#3.49 6343949#6 6343949#7 6343949#8 6343949#8.52 6343949#10 6343949#10.49 6440348#11 6440348#11.4 6440348#11.7 6440348#11.62 6440348#11.73 6440348#14 6464042#0 6464042#0.76 6463017#2 6463017#2.44 6463017#2.48 -6513783#1 -6513783#1.10 962517344 962517344.33 6381494#1 6463017#6 6463017#6.48 -6386837#0 337739268 337739268.124 337739267#0 337739267#1 337739271#0 337739271#0.10 337739271#0.13 337739271#1 337739271#1.6 337739269#0 337739269#1 337739269#1.30 481291013#0 481291013#0.16 481291013#0.30 481291013#0.70 481291013#0.75 481291013#0.79 481291013#0.109 481291013#0.113 737709039#0 737709039#0.8 737709039#0.14 737709039#2 737709039#2.53 737709039#2.59 537678339#0 537678339#0.28 -460399791#2 -460399791#2.15 -460399791#2.17 -460399791#2.82 -460399791#2.105 6460085#0 6460085#0.9 6460085#0.43 6460085#0.101 6460085#2 6460085#2.86 6464374 -65588097#3 -65588097#3.73 -65588097#1 -65588097#1.119 337818330 -460421484#1 -460421484#1.13 -6486416#2 -6486416#2.9 -6486416#2.116 -6360256#15 -6360256#15.7 -6360256#15.133 -6360256#13 -6360256#13.8 -6360256#13.10 -6360256#13.19 -6360256#13.61 -6360256#13.76 -6360256#13.125 243349945#3 243349945#3.5 243349945#3.45 243349945#3.49 -22917113#6 -22917113#5 6447445#5 6447445#5.47 -185485132#8 -185485132#8.81 256994205#2 256994205#2.24 256994205#2.72 256994205#3 428246847#0 428246847#0.8 428246847#0.22 6386110#0 6386110#0.16 6386110#0.25 6386110#0.55 -243349338#6 -243349338#6.14"/>
</vehicle>
<vehicle id = "veh25" type= "veh_passenger" depart="21630" >
<route edges =" -816616074#1 -816616074#1.10 -816616074#1.14 -816616074#1.119 428341734#4 428341734#4.8 428246439#0 428246439#0.14 -569505978#1 -569505978#1.10 -569505979 -569505979.32 -569505979.79 337673338#0 337673338#0.14 337673337 337673339 826314456#0 826314456#0.9 826314456#0.50 826314456#0.96 826314456#0.103 349901822#0 349901822#0.9 96029553#0 96029553#0.9 96029553#0.15 96029553#0.59 8071900#0 8071900#0.7 8071900#0.18 8071900#0.88 -22917111#26 -22917111#26.7 -22917111#26.41 -22917111#26.121 32135548#5 32135548#5.7 32135548#5.49 32135548#5.88 32135548#9 32135548#9.7 32135548#9.47 32135548#9.63 32135548#9.78 525497324#0 525497324#1 243349944#4 243349944#4.53 243349944#6 243349944#7 -460419011#3 -460419011#2 6464126#3 6464126#3.49 6464126#5 6464126#6 6464126#7 6464126#7.50 6464126#9 6464126#9.46 185485132#4 243349338#3 243349338#3.49 243349338#5"/>
</vehicle>
<vehicle id = "veh26" type= "veh_passenger" depart="21630" >
<route edges =" 817434294 817434294.10 817434294.36 817434294.44 817434294.63 817434294.119 6343949#0 6343949#0.7 6343949#0.86 813722270#0 813722270#0.7 813722270#0.42 813722270#0.74 813722270#0.75 813722270#0.121 -6430729#2 -6430729#2.11 -6430729#2.90 816616072#8 816616072#8.6 816616072#8.121 -65588084#2 -65588084#2.10 -65588084#2.91 440887830#0 440887830#0.8 644748880#0 644748880#0.9 644748880#0.50 644748880#0.55 -428246437#1 -428246437#1.8 -428246437#1.22 -428246437#1.55 -265352910 -265352910.3 -265352910.12 -265352910.14 -265352910.31 -265352910.50 -265352910.59 -65588113#4 -65588113#4.4 -65588113#4.7 -65588113#4.20 -65588113#4.122 -65588113#4.153 -65588113#4.246 -428246441#2 -428246441#2.2 -428246441#2.10 -723013876#1 -723013876#1.12 -723013876#1.18 -723013877 -6415868#5 -6415868#4 -6415868#4.9 6349123#7 -6343952#2 6511393#8 -6430733#1 460421473#2 460421473#2.62 -393047810#1 -393047810#1.14 -393047810#1.66 -393047810#1.75 -6366765#24 -6366765#24.9 -6366765#24.38 -6366765#24.40 -6366765#24.42 -6366765#24.43 -6366765#24.47 -6366765#24.51 -6366765#24.58 -6366765#24.79 6349048#0 6349048#0.7 6349048#0.89 6479778#2 -6463008#2 -6463008#2.5 -6463008#2.9 -6463008#2.10 -6463008#2.85 -6463008#2.90 -6366765#18 -6366765#18.28 -6366765#18.47 -6366765#18.74 -6366765#18.98 -6366765#18.129 -6366765#12 -6366765#12.5 -6366765#12.120 -6464391#16 -6464391#16.5 -6464391#16.47 -6464391#16.88 749754758#5 749754758#5.6 749754758#5.124 749754758#8 749754758#8.5 -6346308#3 -6346308#3.49 -6366765#4 -6366765#3 -6366765#3.66 -6366765#3.80 -6366765#3.121 -6366765#3.190 -6366765#3.194 -6366765#3.197 -6366765#3.201 -6366765#3.204 -51476458 -621088606#1 -621088606#0 -621088607#1 6348400#0 215404534#2 -6358515#1 8071895#0 8071895#1 8071381#0 8071381#0.67 6428544#5 -428098976#2 -428098976#2.133 -428098976#2.136 -428098973 6523130 -337099385#0 -337099385#0.153 -337099385#0.159 -6368665#5 -6368665#5.9 -6368665#5.17 -6368665#5.26 -6368665#5.35 -6368665#5.53 -6368665#4 -6368665#4.121 -6368665#2 158882505#2 158882505#3 6411908#3 158882517#3 158882517#4 -6403883#2 158882505#7 6469837#2 6469837#3 -158882511#8 6403883#4 6403883#5 6345333 -6457203#14 -6457203#14.67 6368504#3 6368504#3.46 6368504#5 6368504#5.48 6368504#7 6368504#7.50 -6513783#8 -170683231#20 -170683231#20.51 6381494#12 6381494#12.56 6381494#13 6381494#13.7 6381494#13.132 263666867#0 263666867#0.20 263666867#0.49 263666867#3 263666867#3.49 642732922 476409331 791722143#0 791722143#0.9 170683231#12 170683231#12.36 170683231#12.50 170683231#12.64 -336904472#4 -336904472#4.96 -37657905#6 -37657905#6.50 -37657905#6.87 -6381494#8 -6381494#8.122 -6381494#8.124 -757399066#2 -757399066#2.17 -757399066#2.53 -8111709#5 -8111709#5.48 -8111709#3 -8111709#3.49 -8111709#1 -8111709#1.49 -6457203#3 -6457203#3.34 -6457203#3.51 -6457203#3.73 -6457203#3.81 -6457203#0 -8071899 -292812446#5 -292812446#4 -292812446#4.6 -292812446#4.35 -292812446#4.44 -292812446#4.56 -292812446#4.99 -292812446#4.111 8071898#0 8071898#0.8 8071898#0.10 8071898#0.26 8071898#0.40 8071898#2 8071898#3 620762214 -349901822#3 -349901822#3.58 -349901822#1 -349901822#1.38 -826314456#4 -826314456#4.12 -826314456#4.19 -826314456#4.65 -826314456#4.106 -337673339 -337673337 185882764 185882764.13 185882764.14 185882765 185882765.16 185882765.26 185882765.30 185882765.31 -243338979#28 -243338979#28.13 -243338979#28.49 -243338979#28.142 -243338979#28.143 -243338979#25 -243338979#25.8 -243338979#25.64 -243338979#25.77 -243338979#25.120 -243338979#20 -243338979#20.7 -243338979#20.121 -243338979#17 -243338979#17.7 -243338979#17.60 -243338979#17.109 -243338979#17.118 -243338979#17.120 -486864438#1 -486864438#1.11 -486864438#1.48 -486864438#1.60 -486864438#1.88 -436480241#1 -436480241#1.12 -436480245#3 -436480245#2 -436480245#2.30 -436480245#0 -436480245#0.21 -436480245#0.32 -436480245#0.59 -436480243#3 -436480243#3.10 -436480243#3.19 -436480243#3.38 -6435230#9 -6435230#8 -6435230#7 -6435230#7.4 -6435230#7.24 -6435230#7.64 -6435230#5 -6435230#5.17 893868549#7 893868549#7.9 893868549#7.13 893868549#7.94 893868549#7.109 893868549#7.125 893868549#7.184 6476327#8 6476327#8.6 6476327#8.84 6476327#11 6476327#12 6476327#12.5 6476327#12.32 6476327#12.60 486844942#4 486844942#4.7 486844942#4.31 486844942#4.73 486844942#4.89 353690160#0 353690160#0.6 353690160#0.88 22917111#3 22917111#3.9 22917111#3.50 22917111#3.112 22917111#3.129 22917111#3.131 22917111#3.134 22917111#3.173 22917111#3.196 22917111#11 22917111#11.7 22917111#11.31 22917111#11.49 22917111#11.50 22917111#11.120 22917111#11.121 22917111#14 22917111#14.7 22917111#14.9 22917111#14.122 22917111#14.123 22917111#14.125 6464138#4 6464138#4.6 6464138#4.51 6464138#4.88 6464138#8 6464138#8.7 6464138#8.49 6464138#8.88 6464138#12 6464138#12.51 -6481166#10 -6481166#10.6 -6481166#10.8 -6481166#10.120 353690154#15 353690154#15.50 243339793#0 243339793#0.48 -460419011#0 -460419011#0.11 460419013#0 460419013#0.51 481291014#0 481291014#0.53 460419024#0 460419024#0.9 460419024#0.19 460419024#0.34 460419024#0.53 460419024#0.102 460419024#5 460419024#5.50 460419024#5.63 460419024#5.69 6516509#0 6516509#0.7 6516509#0.30 6516509#0.46 6516509#0.66 6516509#0.90 6516509#0.105 6516509#0.109 -6463536#1 -6463536#1.10 -6463536#1.11 -6463536#1.22 -6463536#1.32 -6463536#1.39 -6463536#1.43 -6463536#1.50 -6463536#1.60 -6463536#1.69 -6380913#7 -6380913#7.22 6467507#8 6467507#8.87 6516509#8 6516509#8.7 6516509#8.85 6507809#10 6507809#10.8 6507809#10.91 -6360239#7 -6360239#7.6 -6360239#7.47 -6360239#7.86 -6360239#3 -6360239#3.6 -6360239#3.69 -6360239#3.102 6487445#0 6487445#0.8 6415147#0 6415147#0.61 6449462#3 6449462#3.7 6449462#3.50 6449462#3.60 6449462#3.72 6449462#3.87 795669781 795669781.52 795669781.56 6497081#6 6497081#6.44 6497081#8 6371720#3 157167355#0"/>
</vehicle>
<vehicle id = "veh27" type= "veh_passenger" depart="21630" >
<route edges =" -814326475#2 -814326475#2.9 -814326475#2.24 -814326475#2.41 -814326475#2.70 -814326475#2.91 -6456052#5 -6456052#5.10 -6456052#5.36 -6456052#5.120 -6456052#1 -6456052#1.10 -6456052#1.62 -607691082#1 -607691082#0 -6475815#3 -6475815#3.2 -6475815#3.17 -6475815#3.46 -428089348#3 -428089348#3.15 -428089348#3.21 -428089348#3.28 -353690151#5 -353690151#5.11 -353690151#5.12 -353690151#5.26 -353690151#5.83 -353690151#5.102 -293753571#3 -293753571#3.3 -293753571#3.7 -293753571#3.21 -369877031#7 -369877031#7.10 -369877031#7.98 -369877031#7.191 -749622503#8 -749622503#8.7 -749622503#8.63 -749622503#8.83 -749622503#4 -749622503#4.84 -749622503#2 -749622503#2.9 -749622503#2.29 -749622503#2.64 -749622503#2.84 -6522514#4 -6522514#4.7 -6522514#4.36 -6522514#4.61 -6522514#4.66 -6522514#4.67 -6522514#4.73 -332223490#1 -332223490#1.19 6514305#0 6514305#0.3 6514305#0.4 6514305#0.9 6514305#0.14 6514305#0.34 6514305#0.54 -6456044#8 -6456044#8.8 -6456044#8.104 -6456044#5 -6456044#5.7 -6456044#5.86 6467490#0 6467490#0.7 6467490#0.49 6467490#0.78 -401497115 -401497115.113 -401497115.170 -401497115.214 -428233435 -460425668 -460425668.5 -6457806#2 -6457806#2.21 -6457806#2.25 -6457806#2.30 -425646003#1 -425646003#1.13 -724644768 -724644768.35 6402586#0 6402586#0.1 6402586#0.4 6402586#0.6 6402586#0.12 6402586#0.35 6402586#0.59 6415152 6415152.4 6415152.15 6415152.33 6415152.51 6415152.63 6415152.76 6415152.94 6415152.108 6415152.133 6415152.155 858621141#0 858621141#0.35 858621141#0.40 622519661 622519661.8 739874553#0 739874553#0.66 739874553#0.80 739874553#0.88 333370569#0 333370569#0.6 333370569#0.13 333370569#0.37 333370569#0.43 333370569#0.66 333370569#0.94 333370569#0.155 333370569#0.178 333370566#0 333370566#0.32 332223494#0 332223494#0.18 332223494#0.35 332223494#0.144 332223494#0.171 6506833#15 6506833#15.8 6506833#15.10 6506833#15.35 6506833#18 6506833#18.45 -749863323#3 -749863323#3.10 -749863323#3.85 -749863323#3.126 792010738#0 792010738#0.4 792010738#0.9 792010738#0.19 -749863325#1 -749863325#1.6 -749863325#1.16 -749863325#1.39 -749863325#1.43 -749863325#1.51 -749863325#1.75 -749863325#1.82 -749863325#1.101 -749863325#1.117 -749863325#1.139 -749863325#1.157 -749863325#1.165 -749863325#1.172 -749863325#1.175 -749863325#1.187 -749863325#1.189 -749863325#1.199 -749863325#1.212 -749863325#1.248 -749863325#1.271 -369922295#18 -369922295#18.10 -369922295#18.41 -369922295#18.56 -369922295#18.69 -369922295#18.105 -369922295#18.129 -369922295#18.131 -369922295#18.172 547653672#0 547653672#0.9 547653672#0.28 547653672#0.62 6477649#0 6477649#0.6 6477649#0.21 6477649#0.77 6477649#0.159 6477649#0.170 6477649#6 6477649#6.9 6477649#6.30 6477649#6.32 6477649#6.45 6477649#6.63 6477649#6.92 6477649#6.106 6477649#6.147 6477649#6.175 6477649#6.199 6477649#6.205 6477649#6.230 6477649#6.286 6477649#6.306 6477649#6.322 792010743#2 792010743#2.11 792010743#2.16 6371699#0 6371699#0.9 -6506833#28 -6506833#28.6 -6506833#28.45 -6506833#28.63 -6506833#28.85 263712957#13 263712957#13.7 263712957#13.54 263712957#13.186 844067888#0 844067888#0.8 844067888#0.63 844067888#0.137 844067888#0.187 263712958#0 263712958#0.8 263712958#0.45 263712958#0.101 263712958#0.114 263712958#0.117 263712958#0.119 6445479#0 6445479#0.4 6445479#0.8 6445479#0.186 965874292#10 965874292#10.35 965874292#12 965874292#12.8 965874292#12.69 158123767#0 158123767#0.10 158123767#0.11 158123767#0.50 158123767#0.74 158123767#0.86 158123767#0.115 158123767#0.122 158123767#0.134 158123767#0.139 158123767#0.166 795669782#0 795669782#0.54 6414318#1 6414318#1.86 6414318#3 -157167355#0"/>
</vehicle>
</routes>
