<?xml version="1.0" encoding="UTF-8"?>
<routes xmlns:xsi="http: // www.w3.org/2001/XMLSchema-instance" xsi:noNamespaceSchemaLocation="http: // sumo.dlr.de/xsd/routes_file.xsd">
<vType id="veh_passenger" vClass="passenger"/>

<vehicle id = "veh0" type= "veh_passenger" depart="0" >
<route edges =" -316633577#1 -316633577#0 -797309094#1 -797309094#0 -797309094#0.6 -797309094#0.12 -797309095 -165864174#3 -165864174#2 -165864174#1 -34361024#1 -34361024#0 -34361024#0.80 -188703042#5 -188703042#4 -188703042#4.59 -188703042#3 -188703042#3.6 -188703042#3.24 -188703042#2 -188703042#1 -188703042#1.59 -188703042#1.74 -188703042#0 -188703042#0.9 -188703042#0.21 -188703049 -201989352#2 -201989352#2.8 -201989352#1 -201989352#1.9 -201989352#1.29 -201989352#0 -34361041#1 -34361041#0 -34361041#0.92 -528122494 -528122494.9 -6360234#7 -6360234#6 -6360234#6.186 -6360234#6.194 -168627934#0 -168627934#0.7 -34811472#12 -34811472#12.8 -34811472#11 -34811472#10 -34811472#9 -34811472#9.6 -34811472#9.49 -34811472#8 -34811472#7 -34811472#6 -34811472#5 -34811472#4 -34811472#4.71 -34811472#3 -34811472#3.7 -34811472#3.66 -34811472#3.122 -34811472#3.194 -34811472#2 -34811472#2.8 -34811472#2.70 -34811472#2.135 -34811472#2.192 -24024251#2 -24024251#2.7 -910274653#0 -930646447 -910274656 -210456949#12 -210456949#12.41 -210456949#11 -210456949#10 -210456949#9 -210456949#9.190 -210456949#8 -210456949#8.10 -26379345#9 -26379345#8 -26379345#8.93 24028181#3 24028181#4 24028181#4.122 24028181#5 24028181#5.186 -190017518#0 -190017518#0.7 -190017518#0.88 -999534620#25 -999534620#24 -999534620#24.3 -541349569 -541349569.193 -6356133#2 -6356133#2.8 -6356133#2.193 -6356133#1 -6356133#1.9 -6356133#0 -541349570 -819368215#0 -819368215#0.76 415870533#8 415870533#8.6 415870533#9 415870525#0 415870525#0.13 415870525#1 415870525#2 22370937#0 22370937#1 22370937#2 22370937#3 22370937#3.6 22370937#4 22370937#4.6 22370937#5 22370937#5.11 22370937#6 22370937#7 415870519#0 415870519#1 415870531#0 415870531#1 415870531#1.26 415870531#2 22370936#0 22370936#0.7 22370936#0.14 -6353149 1014203284#2 -30832687#3 -30832687#3.8 422792872#1 422792872#1.9 -6346111#4 -6346111#4.91 -6346111#4.93 195433868#5 195433868#5.7 195433868#6 195433868#6.6 -7840628#2 -7840628#2.8 -7840628#1 -7840628#1.193 168627943#7 168627943#7.7 -24164451#1 -24164451#1.7 -24164451#1.193 -24164451#0 24164453 24164453.10 24164453.23 32456680 32456680.2 -422947668 -422947668.11 -233686193 -233686193.8 -196750859#2 -196750859#1 -196750859#1.40 6378198#0 6378198#0.13 6378198#0.178 6378198#0.195 6378198#1 6378198#2 6378198#3 6378198#3.3 6378198#4 6378198#4.3 697544433#2 697544433#2.14 6351007#0 6351007#0.29 6351007#0.46 6351007#0.52 6351007#0.56 6351007#0.62 6351007#0.66 6351007#0.72 6351007#0.77 6351007#0.83 6351007#0.89 6351007#0.98 6351007#1 -6332167#0 -6332167#0.10 6386692#3 6386692#3.3 6386692#3.6 6386692#3.9 6338567#0 6338567#0.10 6338567#0.118 6338567#1 6338567#1.107 6338567#2 6338567#3 6338567#3.80 6338567#4 6338567#4.78 6338567#5 6338567#5.8 6338567#6 6338567#7 6338567#7.90 6338567#8 6338567#8.11 6338567#9 6338567#10 6338567#11 6338567#12 30156401#0 -6333513#3 -6333513#3.137 -11043363#3 -11043363#3.7 -11043363#2 -11043363#1 -11043363#0 7857575#0 7857575#0.10 7857575#0.24 7857575#0.39 7857575#0.57 7857575#0.75 7857575#0.88 7857575#0.126 7857575#0.144 7857575#0.146 7857575#0.162 7857575#0.184 7857575#0.212 7857575#0.218 7857575#0.224 7857575#0.229 7857575#0.241 7857575#0.275 7857575#0.303 7857575#0.315 7857575#0.324 7857575#0.326 7857575#0.339 7857575#0.350 7857575#0.357 7857575#0.360 7857575#0.410 7857575#1 7857575#1.42 7857575#1.66 7857575#1.85"/>
</vehicle>
<vehicle id = "veh1" type= "veh_passenger" depart="0" >
<route edges =" 797309093 797309091#0 797309091#0.10 797309091#1 797309091#1.7 797309091#2 797309091#2.10 797309091#2.15 797309091#3 377635148 377635148.3 377635148.5 -437142992 -437142992.6 -6329160 -6329160.124 -6329160.133 785854260#3 785854260#3.11 785854260#3.30 -763290363 -763290363.11 -24620691#4 -24620691#3 -24620691#2 -24620691#1 -24620691#0 24620690 24620690.5 -24620688 24620689#0 24620689#0.6 24620689#1 24620689#1.9 -201989358#2 -201989358#2.18 -201989358#1 -201989358#1.6 -201989358#1.82 -201989358#0 -195430724#15 -195430724#14 -195430724#14.20 -195430724#13 -195430724#13.78 -195430724#12 -195430724#12.8 -195430724#12.12 -195430724#11 -195430724#11.17 -164659478#5 -164659478#5.7 -164659478#4 -6362542#1 -6362542#1.7 -6362542#0 -6362542#0.104 -7783135#3 -7783135#3.7 -7783135#2 -7783135#2.7 -7783135#1 -7783135#0 -7783135#0.101 43256415 43256415.22 -6345181#8 -6345181#8.4 -6345181#8.7 -6345181#8.93 541334899#0 541334899#0.7 541334899#1 541334899#2 541334899#3 541334899#4 541334899#5 541334900#0 541334900#1 541334900#2 541334900#3 541334900#4 541334900#5 541334900#6 698994092#3 698994092#4 698994092#4.84 6348015 6348015.7 761330890 761330889#0 761330889#1 761330889#2 761330889#3 761330889#3.83 761330889#4 517593873#2 517593873#2.29 517593873#3 415876778 22278225#0 22278225#0.24 22278225#1 22278225#1.6 22278225#1.16 22278225#1.26 196779231#0 196779231#0.12 196779231#1 196779231#1.17 21452694#0 21452694#0.5 21452694#0.7 21452694#0.9 21452694#0.14 21452694#0.21 21452694#0.27 21452694#0.101 21452694#1 21452694#1.9 21452694#1.14 21452694#1.27 21452694#2 415878130#0 415878130#1 415878131#0 415878131#1 682209186 196779232 196779232.9 415878126 415878126.6 415878137#0 415878137#1 194859188#0 194859188#1 194859188#1.24 415878134#0 415878134#1 202177316#0 202177316#1 202177316#2 415878127 415878127.3 415878136#0 415878136#1 -415876790#1 -415876790#0 -756453993 -559526390 -559526390.35 -164658213#11 -164658213#11.10 -164658213#11.12 -164658213#10 -164658213#10.55 -164658213#9 -164658213#8 -164658213#7 -164658213#6 -164658213#6.156 -164658213#5 -164658213#5.7 -164658213#4 -164658213#4.36 -164658213#3 -164658213#2 -164658213#1 -164658213#0 -164658213#0.113 164658212#0 164658212#0.7 164658212#1 193256683#0 193256683#1 193256683#1.83 -618189913#5 -618189913#5.7 -618189913#5.17 -618189913#5.34 -618189913#4 -618189913#4.5 -618189913#4.9 -618189913#4.25 -618189913#3 -618189913#2 -618189913#1 -618189913#1.76 -618189913#1.91 -618189913#0 -618189913#0.6 -618189913#0.24 -618189913#0.90 -618189913#0.190 -618189913#0.204 -618189913#0.219 -618189913#0.231 -694455409#6 -694455409#6.8 -694455409#6.11 -694455409#6.20 -694455409#6.38 -694455409#5 -694455409#5.10 -694455409#5.23 -694455409#5.42 -694455409#5.118 6402116#0 6402116#0.7 6402116#0.10 6402116#0.16 6402116#0.20 6402116#0.54 6402116#0.162 6402116#0.179 6402116#0.194 6402116#0.209 6402116#0.228 6402116#0.245 6402116#0.264 6402116#0.286 6402116#0.307 6402116#0.326 6402116#0.377 6402116#0.411 6402116#0.433 -190579762#17 -190579762#17.47 6341488#16 6341488#16.13 6341488#16.20 6341488#16.48 6341488#16.58 6341488#16.72 6341488#16.96 6341488#16.142 6341488#16.158 6341488#16.170 6341488#16.183 6341488#16.197 -6336093#4 -6336093#4.17 -6336093#4.38 -6336093#4.53 -6336093#4.79 -6336093#4.90 -6336093#3 -6336093#3.13 -6336093#3.25 -6336093#3.39 -6336093#3.120 -6336093#3.127 -6336093#3.135 -6336093#2 -6336093#1 -6339085#8 -6339085#8.12 -6339085#8.19 -6339085#8.28 -6339085#8.38 -6339085#8.98 -6339085#8.116 -6339085#7 -6339085#7.29 -6339085#7.47 -6339085#7.68 -6339085#7.87 -6339085#7.110 -6339085#6 -6339085#5 -6339085#5.13 -6339085#5.24 -6339085#5.39 -6339085#4 -6339085#4.58 -6339085#4.92 -6339085#4.103 -6339085#3 -6339085#3.11 -6339085#3.19 -6339085#3.40 -6339085#3.47 -6339085#3.56 -6339085#3.68 -6339085#3.81 -6339085#3.95 -6339085#3.107 -6339085#3.120 -6339085#2 -6339085#2.14 -6339085#2.26 -6339085#2.37 -6339085#2.49 -6339085#2.63 -6339085#2.115 -6339085#2.125 -6339085#2.140 -6339085#1 -6339085#0 -6339085#0.12 -6339085#0.27 -6339085#0.45 -6339085#0.77 -6339085#0.87 -6339085#0.98 -6339085#0.119 -6339085#0.129 -190579779#0 -190579779#0.109 -190579779#0.117 6333513#0 6333513#0.10 6333513#0.40 6333513#0.51 6333513#0.62 6333513#0.73 6407689#0 -11043364#4 -11043364#3 -11043364#2 -11043364#1 -11043364#0 -11043364#0.73 -11043364#0.81 -7857575#1 -7857575#1.27 -7857575#1.57 -7857575#1.75 -7857575#1.83 -7857575#1.99 -7857575#1.115 -7857575#1.152 -7857575#1.166 -7857575#1.179 -7857575#1.219 -7857575#1.229 -7857575#1.268 -7857575#1.290 -7857575#1.315 -7857575#1.332 -7857575#1.343 -7857575#1.361 -7857575#1.378 -7857575#1.390 -7857575#1.402 -7857575#1.416 -7857575#1.443 -7857575#1.452 -7857575#1.462"/>
</vehicle>
<vehicle id = "veh2" type= "veh_passenger" depart="3605" >
<route edges =" -316633577#1 -316633577#0 -797309094#1 -797309094#0 -797309094#0.6 -797309094#0.12 -797309095 -165864174#3 -165864174#2 -165864174#1 -34361024#1 -34361024#0 -34361024#0.80 -188703042#5 -188703042#4 -188703042#4.59 -188703042#3 -188703042#3.6 -188703042#3.24 -188703042#2 -188703042#1 -188703042#1.59 -188703042#1.74 -188703042#0 -188703042#0.9 -188703042#0.21 -6329505#1 -6329505#1.9 -6329505#1.18 -6329505#1.26 -6329505#1.79 -6329505#1.88 -6329505#1.97 -6329505#1.104 -6329505#0 -201989352#2 -201989352#2.8 -201989352#1 -201989352#1.9 -201989352#1.29 -201989352#0 201989358#0 201989358#1 201989358#1.13 201989358#1.90 -25340074 -25340074.8 -25340074.86 -34361042 -34361042.8 -34361042.97 -528122494 -528122494.9 -6360234#7 -6360234#6 -6360234#6.186 -6360234#6.194 -168627934#0 -168627934#0.7 -34811472#12 -34811472#12.8 -34811472#11 -34811472#10 -34811472#9 -34811472#9.6 -34811472#9.49 -34811472#8 -34811472#7 -34811472#6 -202317716#4 -202317716#3 -202317716#3.20 -202317716#3.88 -202317716#2 -202317716#1 -202317716#1.25 -202317716#1.51 -202317716#0 -515883300#4 -515883300#3 -515883300#2 -515883300#1 -515883300#0 -515883300#0.102 164659505#2 164659505#2.1 164659505#2.2 164659505#2.4 164659505#2.5 -164659446 -164659446.3 -164659446.87 164659489#1 164659489#1.1 164659489#1.3 164659489#1.4 164659489#1.6 164659489#2 164659489#2.1 164659489#2.3 164659489#2.4 164659489#2.6 164659489#3 164659489#3.1 164659489#3.3 164659489#3.4 164659489#3.6 -164659482 -164659482.3 -164659482.186 164659515#2 164659515#2.1 164659515#2.3 164659515#2.4 164659515#2.6 -24024251#3 -24024251#3.3 -24024251#3.88 -24024251#2 -24024251#2.7 -910274653#0 -930646447 -910274656 -210456949#12 -210456949#12.41 -210456949#11 -210456949#10 32456661#2 32456661#2.7 32456661#3 32456661#3.36 -172616532#4 -172616532#4.6 -172616532#4.10 -172616532#3 -172616532#3.6 -172616532#3.13 -172616532#2 -172616532#2.10 -172616532#2.20 -172616532#1 -172616532#1.2 -172616532#1.11 -172616532#1.18 -172616532#1.29 -172616532#1.46 -172616532#1.67 -172616532#1.78 -172616532#1.87 -172616532#1.105 -172616532#1.133 -172616532#0 -201989365#5 -201989365#4 -201989365#4.4 -201989365#4.16 -201989365#4.82 -210456949#8 -210456949#8.10 -26379345#9 -25968342#2 -25968342#2.60 -25968342#2.67 -25968342#2.75 -25968342#2.82 25968337#8 -210456949#5 -210456949#5.187 -25968343#0 -25968343#0.7 -25968343#0.90 25968344#2 25968344#2.1 25968344#2.3 25968344#2.5 25968344#2.6 25968344#3 25968344#3.1 25968344#3.2 25968344#3.4 25968344#3.5 25968344#3.6 -190017518#1 -190017518#1.3 -190017518#1.86 -190017518#0 -190017518#0.7 -190017518#0.88 -190017519 -190017519.7 25968341 25968341.18 25968341.56 -999534620#24 -999534620#24.3 -541349569 -541349569.193 -6356133#2 -6356133#2.8 -6356133#2.193 -6356133#1 -6356133#1.9 -6356133#0 -7773729#7 -7773729#6 415870533#6 415870533#7 415870533#7.17 415870533#7.70 415870533#7.162 415870533#7.211 415870533#8 415870533#8.6 415870533#9 415870525#0 415870525#0.13 415870525#1 415870525#2 22370937#0 22370937#1 22370937#2 22370937#3 22370937#3.6 22370937#4 22370937#4.6 22370937#5 22370937#5.11 22370937#6 22370937#7 415870519#0 415870519#1 415870531#0 415870531#1 415870531#1.26 415870531#2 415870531#3 415870531#4 415870526#0 415870526#0.35 415870526#1 415870529#0 415870529#1 415870529#1.19 415870529#2 415803769#0 415803769#1 195433868#0 195433868#1 195433868#1.5 195433868#1.19 195433868#2 195433868#2.85 30832687#2 30832687#2.7 30832687#2.8 422792872#1 422792872#1.9 422792872#2 -6333700#3 -6333700#3.6 -6333700#3.89 -6333700#3.91 -6333700#2 -6333700#2.7 -6333700#2.9 -6333700#1 -6333700#1.92 -6333700#1.94 -6333700#0 -6333700#0.7 -6333700#0.9 -6333700#0.65 -6333700#0.81 -6333700#0.94 -6333700#0.105 -6333700#0.119 -6333700#0.188 168627943#5 168627943#6 168627943#6.3 168627943#6.47 168627943#6.62 168627943#6.119 168627943#7 168627943#7.7 -24164451#1 -24164451#1.7 -24164451#1.193 -24164451#0 24164453 24164453.10 24164453.23 32456680 32456680.2 -422947668 -422947668.11 -233686193 -233686193.8 -196750859#2 -196750859#1 -196750859#1.40 6378198#0 6378198#0.13 6378198#0.178 6378198#0.195 6378198#1 6378198#2 6378198#3 6378198#3.3 6378198#4 6378198#4.3 697544433#2 697544433#2.14 6351007#0 6351007#0.29 6351007#0.46 6351007#0.52 6351007#0.56 6351007#0.62 6351007#0.66 6351007#0.72 6351007#0.77 6351007#0.83 6351007#0.89 6351007#0.98 6351007#1 -6332167#0 -6332167#0.10 6386692#3 6386692#3.3 6386692#3.6 6386692#3.9 6338567#0 6338567#0.10 6338567#0.118 6338567#1 6338567#1.107 6338567#2 6338567#3 6338567#3.80 11154779#9 11154779#9.12 11154779#9.34 11154779#9.73 11154779#9.89 11154779#9.122 11154779#9.137 11154779#9.139 6368567 6368567.8 6368567.16 6368567.22 6368567.89 6368567.99 6368567.108 6368567.118 6368567.132 6368567.141 6368567.149 6368567.159 -6341488#14 -6341488#14.8 -6341488#14.20 -6341488#14.36 -6341488#14.51 -6341488#14.67 -6341488#14.105 -6341488#14.115 -6341488#14.127 -6341488#13 -6341488#13.6 -6341488#13.35 -6341488#13.61 -6341488#13.81 -6341488#13.101 -6341488#13.124 -6341488#13.176 6338567#6 6338567#7 6338567#7.90 6338567#8 6338567#8.11 6338567#9 6338567#10 6338567#11 6338567#12 30156401#0 -6333513#3 -6333513#3.137 -11043363#3 -11043363#3.7 -11043363#2 -11043363#1 -11043363#0 7857575#0 7857575#0.10 7857575#0.24 7857575#0.39 7857575#0.57 7857575#0.75 7857575#0.88 7857575#0.126 7857575#0.144 7857575#0.146 7857575#0.162 7857575#0.184 7857575#0.212 7857575#0.218 7857575#0.224 7857575#0.229 7857575#0.241 7857575#0.275 7857575#0.303 7857575#0.315 7857575#0.324 7857575#0.326 7857575#0.339 7857575#0.350 7857575#0.357 7857575#0.360 7857575#0.410 7857575#1 7857575#1.42 7857575#1.66 7857575#1.85"/>
</vehicle>
<vehicle id = "veh3" type= "veh_passenger" depart="3605" >
<route edges =" 797309093 797309091#0 797309091#0.10 797309091#1 797309091#1.7 797309091#2 797309091#2.10 797309091#2.15 797309091#3 377635148 377635148.3 377635148.5 -437142992 -437142992.6 -6329160 -6329160.124 -6329160.133 785854260#3 785854260#3.11 785854260#3.30 785854260#4 785854260#4.14 785854260#4.73 785854260#5 -20625899 -20625899.13 -20625899.430 6344478 6344478.10 -201989358#4 -201989358#4.8 -201989358#4.92 -201989358#4.97 -201989358#3 -201989358#2 -201989358#2.18 -201989358#1 -201989358#1.6 -201989358#1.82 -201989358#0 -195430724#15 -195430724#14 -195430724#14.20 -195430724#13 -195430724#13.78 10585275#1 10585275#1.9 10585275#2 -6357225 -6357225.7 -6332541#0 -6332541#0.83 -164659478#5 -164659478#5.7 -164659478#4 -6362542#1 -6362542#1.7 -6362542#0 -6362542#0.104 -7783135#3 -7783135#3.7 -7783135#2 -7783135#2.7 -7783135#1 -7783135#0 -7783135#0.101 43256415 43256415.22 -6345181#8 -6345181#8.4 -6345181#8.7 -6345181#8.93 541334899#0 541334899#0.7 541334899#1 541334899#2 541334899#3 541334899#4 541334899#5 541334900#0 541334900#1 541334900#2 541334900#3 541334900#4 541334900#5 541334900#6 698994092#3 698994092#4 698994092#4.84 6348015 6348015.7 761330890 761330889#0 761330889#1 761330889#2 761330889#3 761330889#3.83 761330889#4 517593873#2 517593873#2.29 517593873#3 415876778 22278225#0 22278225#0.24 22278225#1 22278225#1.6 22278225#1.16 22278225#1.26 196779231#0 196779231#0.12 196779231#1 196779231#1.17 21452694#0 21452694#0.5 21452694#0.7 21452694#0.9 21452694#0.14 21452694#0.21 21452694#0.27 21452694#0.101 21452694#1 21452694#1.9 21452694#1.14 21452694#1.27 21452694#2 415878130#0 415878130#1 415878131#0 415878131#1 682209186 196779232 196779232.9 415878126 415878126.6 415878137#0 415878137#1 22372598#1 22372598#2 22372598#3 -6391592#1 -6391592#1.7 -6391592#0 -6391592#0.14 781008559#0 781008559#1 781008559#2 781008559#3 202177316#0 202177316#1 202177316#2 415878127 415878127.3 415878136#0 415878136#1 -415876790#1 -415876790#0 -756453993 -559526390 -559526390.35 -164658213#11 -164658213#11.10 -164658213#11.12 -164658213#10 -164658213#10.55 -164658213#9 -164658213#8 24314605#15 24314605#15.92 24314605#15.94 -21452801#12 -21452801#12.7 -21452801#12.36 -21452801#11 -21452801#10 -21452801#10.1 -21452801#10.21 -21452801#9 -21452801#8 -21452801#7 -21452801#6 -21452801#5 -21452801#5.63 -21452801#5.66 -21452801#4 -32618074#6 -32618074#5 -32618074#4 -32618074#4.52 -164658213#3 -164658213#2 -164658213#1 -164658213#0 -164658213#0.113 164658212#0 164658212#0.7 164658212#1 193256683#0 193256683#1 193256683#1.83 22278233#0 22278233#0.7 22278233#1 -6400722#1 -6400722#0 190380683#0 190380683#0.12 190380683#0.36 190380683#1 190380683#1.14 190380683#1.31 190380683#1.46 -618189913#4 -618189913#4.5 -618189913#4.9 -618189913#4.25 -618189913#3 -618189913#2 -618189913#1 -618189913#1.76 -618189913#1.91 -618189913#0 -618189913#0.6 -618189913#0.24 -618189913#0.90 -618189913#0.190 -618189913#0.204 -618189913#0.219 -618189913#0.231 -694455409#6 -694455409#6.8 -694455409#6.11 -694455409#6.20 -694455409#6.38 -694455409#5 -694455409#5.10 -694455409#5.23 -694455409#5.42 -694455409#5.118 6402116#0 6402116#0.7 6402116#0.10 6402116#0.16 6402116#0.20 6402116#0.54 6402116#0.162 6402116#0.179 6402116#0.194 6402116#0.209 6402116#0.228 6402116#0.245 6402116#0.264 6402116#0.286 6402116#0.307 6402116#0.326 6402116#0.377 6402116#0.411 6402116#0.433 -190579762#17 -190579762#17.47 6341488#16 6341488#16.13 6341488#16.20 6341488#16.48 6341488#16.58 6341488#16.72 6341488#16.96 6341488#16.142 6341488#16.158 6341488#16.170 6341488#16.183 6341488#16.197 -6336093#4 -6336093#4.17 -6336093#4.38 -6336093#4.53 -6336093#4.79 -6336093#4.90 -6336093#3 -6336093#3.13 -6336093#3.25 -6336093#3.39 -6336093#3.120 -6336093#3.127 -6336093#3.135 -6336093#2 -6336093#1 -6339085#8 -6339085#8.12 -6339085#8.19 -6339085#8.28 -6339085#8.38 -6339085#8.98 -6339085#8.116 -6339085#7 -6339085#7.29 -6339085#7.47 -6339085#7.68 -6339085#7.87 -6339085#7.110 -6339085#6 -6339085#5 -6339085#5.13 -6339085#5.24 -6339085#5.39 -6338567#10 -6338567#9 6343160 6343160.7 6343160.14 6343160.22 6343160.28 6343160.36 6343160.45 6343160.53 6343160.61 6343160.74 6343160.81 6343160.91 6343160.98 6343160.106 6343160.115 6343160.123 6343160.160 6343160.170 6343160.177 6343160.185 6343160.191 6343160.217 -6339085#3 -6339085#3.11 -6339085#3.19 -6339085#3.40 -6339085#3.47 -6339085#3.56 -6339085#3.68 -6339085#3.81 -6339085#3.95 -6339085#3.107 -6339085#3.120 -6339085#2 -6339085#2.14 -6339085#2.26 -6339085#2.37 -6339085#2.49 -6339085#2.63 -6339085#2.115 -6339085#2.125 -6339085#2.140 -6339085#1 -6339085#0 -6339085#0.12 -6339085#0.27 -6339085#0.45 -6339085#0.77 -6339085#0.87 -6339085#0.98 -6339085#0.119 -6339085#0.129 -190579779#0 -190579779#0.109 -190579779#0.117 6333513#0 6333513#0.10 6333513#0.40 6333513#0.51 6333513#0.62 6333513#0.73 6407689#0 -11043364#4 -11043364#3 -11043364#2 -11043364#1 -11043364#0 -11043364#0.73 -11043364#0.81 -7857575#1 -7857575#1.27 -7857575#1.57 -7857575#1.75 -7857575#1.83 -7857575#1.99 -7857575#1.115 -7857575#1.152 -7857575#1.166 -7857575#1.179 -7857575#1.219 -7857575#1.229 -7857575#1.268 -7857575#1.290 -7857575#1.315 -7857575#1.332 -7857575#1.343 -7857575#1.361 -7857575#1.378 -7857575#1.390 -7857575#1.402 -7857575#1.416 -7857575#1.443 -7857575#1.452 -7857575#1.462"/>
</vehicle>
<vehicle id = "veh4" type= "veh_passenger" depart="7210" >
<route edges =" -316633577#1 -316633577#0 -797309094#1 -797309094#0 -797309094#0.6 -797309094#0.12 -797309095 -165864174#3 -165864174#2 -165864174#1 -34361024#1 -34361024#0 -34361024#0.80 -188703042#5 -188703042#4 -188703042#4.59 -188703042#3 -188703042#3.6 -188703042#3.24 -188703042#2 -188703042#1 -188703042#1.59 -188703042#1.74 -188703042#0 -188703042#0.9 -188703042#0.21 -188703049 -201989352#2 -201989352#2.8 -201989352#1 -201989352#1.9 -201989352#1.29 -201989352#0 -34361041#1 -34361041#0 -34361041#0.92 -528122494 -528122494.9 -6360234#7 -6360234#6 -6360234#6.186 -6360234#6.194 -168627934#0 -168627934#0.7 -34811472#12 -34811472#12.8 -34811472#11 -34811472#10 -34811472#9 -34811472#9.6 -34811472#9.49 -34811472#8 -34811472#7 -34811472#6 -202317716#4 -202317716#3 -202317716#3.20 -202317716#3.88 -164659481#5 -164659481#5.12 -164659481#5.14 -164659481#4 -164659481#3 -164659481#2 -164659481#1 -164659481#0 -164659481#0.122 164659489#2 164659489#2.1 164659489#2.3 164659489#2.4 164659489#2.6 164659489#3 164659489#3.1 164659489#3.3 164659489#3.4 164659489#3.6 -164659482 -164659482.3 -164659482.186 164659515#2 164659515#2.1 164659515#2.3 164659515#2.4 164659515#2.6 -24024251#3 -24024251#3.3 -24024251#3.88 -34811472#1 -34811472#1.7 -34811472#1.74 -34811472#1.137 -34811472#0 -34811472#0.51 -34811472#0.57 -910274657 415878178#0 415878178#1 415878178#2 415878178#2.11 415878178#3 415878178#3.22 415878149 930646449#0 930646449#1 -910274656 -210456949#12 -210456949#12.41 -210456949#11 -210456949#10 -32456661#1 -25968342#4 -25968342#4.191 -25968342#3 -25968342#3.10 -25968342#3.171 -26379345#8 -26379345#8.93 -26379345#7 -26379345#7.22 -26379345#7.36 -26379345#7.76 -26379345#7.91 -26379345#7.92 -999534620#29 -999534620#29.10 -999534620#28 -999534620#28.82 -999534620#28.85 -999534620#27 -999534620#27.6 -999534620#26 -999534620#26.51 -999534620#26.67 -999534620#26.74 -999534620#25 -999534620#24 -999534620#24.3 -541349569 -541349569.193 -6356133#2 -6356133#2.8 -6356133#2.193 -6356133#1 -6356133#1.9 -6356133#0 -7773729#7 -7773729#6 415870533#6 415870533#7 415870533#7.17 415870533#7.70 415870533#7.162 415870533#7.211 415870533#8 415870533#8.6 415870533#9 415870525#0 415870525#0.13 415870525#1 415870525#2 22370937#0 22370937#1 22370937#2 22370937#3 22370937#3.6 22370937#4 22370937#4.6 22370937#5 22370937#5.11 22370937#6 22370937#7 415870519#0 415870519#1 415870531#0 415870531#1 415870531#1.26 415870531#2 415870531#3 415870531#4 415870526#0 415870526#0.35 415870526#1 415870529#0 415870529#1 415870529#1.19 422792872#0 422792872#0.8 422792872#0.177 -30832687#2 -30832687#2.91 -30832687#2.92 -30832687#1 -30832687#1.7 -30832687#1.9 6336003#0 6336003#0.14 6336003#1 6336003#1.14 6336003#1.28 6336003#1.78 6346111#3 6346111#3.91 6346111#3.92 195433868#5 195433868#5.7 -6333700#2 -6333700#2.7 -6333700#2.9 -6333700#1 -6333700#1.92 -6333700#1.94 6398141#1 6398141#1.7 6398141#1.10 6398141#2 6398141#2.93 6398141#3 6398141#3.7 6398141#3.90 6398141#3.93 -32866188#1 -32866188#1.7 -32866188#1.18 -32866188#1.177 -32866188#0 -26723188#2 -26723188#1 -26723188#1.21 -26723188#1.162 -26723188#1.185 -26723188#0 -26723188#0.7 -26723188#0.29 -32866333 -32866333.30 -32866333.52 -415884035#1 -415884035#0 -195595386#2 -195595386#2.4 -195595386#1 -195595386#1.5 -195595386#0 -460683946#1 -460683946#0 -415884036 -415884036.2 -417526452 -417526452.5 -417526452.27 -417526430 -196750859#2 -196750859#1 -196750859#1.40 6378198#0 6378198#0.13 6378198#0.178 6378198#0.195 6378198#1 6378198#2 6378198#3 6378198#3.3 6378198#4 6378198#4.3 697544433#2 697544433#2.14 6351007#0 6351007#0.29 6351007#0.46 6351007#0.52 6351007#0.56 6351007#0.62 6351007#0.66 6351007#0.72 6351007#0.77 6351007#0.83 6351007#0.89 6351007#0.98 6351007#1 -6332167#0 -6332167#0.10 6386692#3 6386692#3.3 6386692#3.6 6386692#3.9 6338567#0 6338567#0.10 6338567#0.118 6338567#1 6338567#1.107 6338567#2 6338567#3 6338567#3.80 6338567#4 6338567#4.78 6338567#5 6338567#5.8 6338567#6 6338567#7 6338567#7.90 6338567#8 6338567#8.11 6338567#9 6338567#10 6338567#11 6338567#12 190579811#2 190579811#2.12 190579811#2.14 190579811#2.24 190579811#2.35 190579811#2.46 190579811#2.50 190579811#3 190579811#3.9 190579811#3.19 190579811#3.32 190579811#3.45 190579811#3.54 190579811#3.64 6335822 6335822.10 6335822.17 6335822.26 6335822.39 6335822.54 6335822.85 6335822.97 6335822.106 -6333513#4 -6333513#3 -6333513#3.137 -11043363#3 -11043363#3.7 -11043363#2 -11043363#1 -11043363#0 7857575#0 7857575#0.10 7857575#0.24 7857575#0.39 7857575#0.57 7857575#0.75 7857575#0.88 7857575#0.126 7857575#0.144 7857575#0.146 7857575#0.162 7857575#0.184 7857575#0.212 7857575#0.218 7857575#0.224 7857575#0.229 7857575#0.241 7857575#0.275 7857575#0.303 7857575#0.315 7857575#0.324 7857575#0.326 7857575#0.339 7857575#0.350 7857575#0.357 7857575#0.360 7857575#0.410 7857575#1 7857575#1.42 7857575#1.66 7857575#1.85"/>
</vehicle>
<vehicle id = "veh5" type= "veh_passenger" depart="7210" >
<route edges =" 797309093 797309091#0 797309091#0.10 797309091#1 797309091#1.7 797309091#2 797309091#2.10 797309091#2.15 797309091#3 377635148 377635148.3 377635148.5 -437142992 -437142992.6 -6329160 -6329160.124 -6329160.133 785854260#3 785854260#3.11 785854260#3.30 -763290363 -763290363.11 -24620691#4 -24620691#3 -24620691#2 -24620691#1 -24620691#0 24620690 24620690.5 -24620688 24620689#0 24620689#0.6 24620689#1 24620689#1.9 -201989358#2 -201989358#2.18 -201989358#1 -201989358#1.6 -201989358#1.82 -201989358#0 -195430724#15 -195430724#14 -195430724#14.20 -195430724#13 -195430724#13.78 10585275#1 10585275#1.9 10585275#2 -6357225 -6357225.7 -6332541#0 -6332541#0.83 -164659478#5 -164659478#5.7 -164659478#4 -6362542#1 -6362542#1.7 -6362542#0 -6362542#0.104 -7783135#3 -7783135#3.7 -164659473#10 -164659473#10.7 -164659473#9 -164659473#8 -164659473#8.12 -164659473#7 -164659473#7.13 -164659473#6 -164659473#6.16 202317716#13 202317716#13.7 202317716#14 742663483#0 742663483#1 742663483#1.35 742663483#1.56 742663483#1.77 742663483#1.84 742663483#2 415878804#0 415878804#1 415878803#0 415878803#1 541334900#0 541334900#1 541334900#2 541334900#3 541334900#4 541334900#5 541334900#6 698994092#3 698994092#4 698994092#4.84 6348015 6348015.7 761330890 761330889#0 761330889#1 761330889#2 761330889#3 761330889#3.83 761330889#4 517593873#2 517593873#2.29 517593873#3 415876778 22278225#0 22278225#0.24 22278225#1 22278225#1.6 22278225#1.16 22278225#1.26 196779231#0 196779231#0.12 196779231#1 196779231#1.17 21452694#0 21452694#0.5 21452694#0.7 21452694#0.9 21452694#0.14 21452694#0.21 21452694#0.27 21452694#0.101 21452694#1 21452694#1.9 21452694#1.14 21452694#1.27 21452694#2 415878130#0 415878130#1 415878131#0 415878131#1 682209186 196779232 196779232.9 415878126 415878126.6 415878137#0 415878137#1 22372598#1 22372598#2 22372598#3 -6391592#1 -6391592#1.7 -6391592#0 -6391592#0.14 781008559#0 781008559#1 781008559#2 781008559#3 202177316#0 202177316#1 202177316#2 415878127 415878127.3 415878136#0 415878136#1 -417694700#1 -417694700#0 -417694700#0.27 -21452801#14 -21452801#14.52 -21452801#14.110 -21452801#13 -21452801#13.45 -21452801#13.82 -21452801#13.88 -24314605#15 -24314605#15.6 -24314605#15.8 -164658213#7 -164658213#6 -164658213#6.156 -164658213#5 -164658213#5.7 -164658213#4 -164658213#4.36 32618074#4 32618074#4.7 32618074#5 32618074#6 -21452801#3 -21452801#2 -21452801#1 -21452801#1.22 -21452801#1.26 -21452801#0 -36985599#3 -36985599#2 -36985599#2.120 -36985599#2.132 -36985599#2.140 -36985599#2.155 -36985599#2.166 -36985599#1 -36985599#1.11 -36985599#1.17 -36985599#0 -36985598 -6372698#3 -6372698#3.4 -6372698#2 -6372698#2.9 -6372698#2.152 -22277719#7 -22277719#7.7 -22277719#7.92 -618189913#0 -618189913#0.6 -618189913#0.24 -618189913#0.90 -618189913#0.190 -618189913#0.204 -618189913#0.219 -618189913#0.231 -694455409#6 -694455409#6.8 -694455409#6.11 -694455409#6.20 -694455409#6.38 -694455409#5 -694455409#5.10 -694455409#5.23 -694455409#5.42 -694455409#5.118 6402116#0 6402116#0.7 6402116#0.10 6402116#0.16 6402116#0.20 6402116#0.54 6402116#0.162 6402116#0.179 6402116#0.194 6402116#0.209 6402116#0.228 6402116#0.245 6402116#0.264 6402116#0.286 6402116#0.307 6402116#0.326 6402116#0.377 6402116#0.411 6402116#0.433 -190579762#17 -190579762#17.47 6341488#16 6341488#16.13 6341488#16.20 6341488#16.48 6341488#16.58 6341488#16.72 6341488#16.96 6341488#16.142 6341488#16.158 6341488#16.170 6341488#16.183 6341488#16.197 -6336093#4 -6336093#4.17 -6336093#4.38 -6336093#4.53 -6336093#4.79 -6336093#4.90 -6336093#3 -6336093#3.13 -6336093#3.25 -6336093#3.39 -6336093#3.120 -6336093#3.127 -6336093#3.135 -6336093#2 -6336093#1 -6339085#8 -6339085#8.12 -6339085#8.19 -6339085#8.28 -6339085#8.38 -6339085#8.98 -6339085#8.116 -6339085#7 -6339085#7.29 -6339085#7.47 -6339085#7.68 -6339085#7.87 -6339085#7.110 -6339085#6 -6339085#5 -6339085#5.13 -6339085#5.24 -6339085#5.39 -6339085#4 -6339085#4.58 -6339085#4.92 -6339085#4.103 -6339085#3 -6339085#3.11 -6339085#3.19 -6339085#3.40 -6339085#3.47 -6339085#3.56 -6339085#3.68 -6339085#3.81 -6339085#3.95 -6339085#3.107 -6339085#3.120 -6339085#2 -6339085#2.14 -6339085#2.26 -6339085#2.37 -6339085#2.49 -6339085#2.63 -6339085#2.115 -6339085#2.125 -6339085#2.140 -6339085#1 -6339085#0 -6339085#0.12 -6339085#0.27 -6339085#0.45 -6339085#0.77 -6339085#0.87 -6339085#0.98 -6339085#0.119 -6339085#0.129 -190579779#0 -190579779#0.109 -190579779#0.117 6333513#0 6333513#0.10 6333513#0.40 6333513#0.51 6333513#0.62 6333513#0.73 6407689#0 -11043364#4 -11043364#3 -11043364#2 -11043364#1 -11043364#0 -11043364#0.73 -11043364#0.81 -7857575#1 -7857575#1.27 -7857575#1.57 -7857575#1.75 -7857575#1.83 -7857575#1.99 -7857575#1.115 -7857575#1.152 -7857575#1.166 -7857575#1.179 -7857575#1.219 -7857575#1.229 -7857575#1.268 -7857575#1.290 -7857575#1.315 -7857575#1.332 -7857575#1.343 -7857575#1.361 -7857575#1.378 -7857575#1.390 -7857575#1.402 -7857575#1.416 -7857575#1.443 -7857575#1.452 -7857575#1.462"/>
</vehicle>
<vehicle id = "veh6" type= "veh_passenger" depart="10815" >
<route edges =" 797309093 797309091#0 797309091#0.10 797309091#1 797309091#1.7 797309091#2 797309091#2.10 797309091#2.15 797309091#3 377635148 377635148.3 377635148.5 -437142992 -437142992.6 -6329160 -6329160.124 -6329160.133 785854260#3 785854260#3.11 785854260#3.30 -763290363 -763290363.11 -24620691#4 -24620691#3 -24620691#2 -24620691#1 -6338310#3 -6338310#3.7 -34361036#1 -34361036#1.6 -34361036#1.121 -34361036#1.126 -34361036#1.131 -34361036#1.135 -34361036#0 -34361036#0.5 -201989352#2 -201989352#2.8 -201989352#1 -201989352#1.9 -201989352#1.29 -201989352#0 -195430724#15 -195430724#14 -195430724#14.20 -195430724#13 -195430724#13.78 -195430724#12 -195430724#12.8 -195430724#12.12 -195430724#11 -195430724#11.17 -164659478#5 -164659478#5.7 -6360234#6 -6360234#6.186 -6360234#6.194 -168627934#0 -168627934#0.7 -34811472#12 -34811472#12.8 -34811472#11 -34811472#10 -34811472#9 -34811472#9.6 -34811472#9.49 -34811472#8 -34811472#7 -34811472#6 202317716#5 202317716#6 202317716#7 202317716#8 202317716#8.63 202317716#9 202317716#9.7 202317716#10 202317716#10.12 202317716#11 202317716#11.3 202317716#12 202317716#12.6 202317716#13 202317716#13.7 202317716#14 742663483#0 742663483#1 742663483#1.35 742663483#1.56 742663483#1.77 742663483#1.84 742663483#2 415878804#0 415878804#1 415878803#0 415878803#1 541334786#0 541334786#1 541334786#1.21 541334786#2 -698994093#10 -698994093#9 -698994093#8 -698994093#8.7 -698994093#7 -698994093#7.11 -698994093#6 -698994093#5 -698994093#5.50 -698994093#4 -698994093#4.7 -698994093#3 -698994093#2 -698994093#1 -698994093#0 -698994093#0.12 -698994093#0.22 6348015 6348015.7 761330890 761330889#0 761330889#1 761330889#2 761330889#3 761330889#3.83 761330889#4 517593873#2 517593873#2.29 517593873#3 415876778 196779219#0 196779219#1 196779219#2 196779219#3 30833030#0 30833030#1 30833030#1.19 196779231#0 196779231#0.12 196779231#1 196779231#1.17 21452694#0 21452694#0.5 21452694#0.7 21452694#0.9 21452694#0.14 21452694#0.21 21452694#0.27 21452694#0.101 21452694#1 21452694#1.9 21452694#1.14 21452694#1.27 21452694#2 415878130#0 415878130#1 415878131#0 415878131#1 682209186 196779232 196779232.9 415878126 415878126.6 415878137#0 415878137#1 194859188#0 194859188#1 194859188#1.24 415878134#0 415878134#1 202177316#0 202177316#1 202177316#2 415878127 415878127.3 415878136#0 415878136#1 -417694700#1 -417694700#0 -417694700#0.27 -21452801#14 -21452801#14.52 -21452801#14.110 -21452801#13 -21452801#13.45 -21452801#13.82 -21452801#13.88 -21452801#12 -21452801#12.7 -21452801#12.36 -21452801#11 -21452801#10 -21452801#10.1 -21452801#10.21 -21452801#9 -21452801#8 -21452801#7 -21452801#6 -21452801#5 -21452801#5.63 -21452801#5.66 -21452801#4 32618074#7 32618074#8 32618074#8.82 32618074#8.84 22273546#1 22273546#1.1 22273546#1.2 22273546#1.4 22273546#1.5 22273546#2 22273546#2.1 22273546#2.2 22273546#2.4 22273546#2.5 22273541#0 22273541#0.3 22273541#0.5 22273541#1 22273541#1.37 22273541#1.41 -6400722#5 -6400722#5.7 -6400722#5.8 -6400722#4 -6400722#3 -6400722#2 -6400722#1 -6400722#0 -190380685#1 -190380685#1.9 -190380685#1.20 -190380685#1.38 -190380685#1.61 -190380685#1.77 -190380685#1.84 -190380685#0 -190380685#0.11 -190380685#0.22 -190380685#0.34 -190380685#0.60 -190380689#3 -190380689#2 22277719#4 22277719#5 22277719#6 22277719#6.92 -618189913#0 -618189913#0.6 -618189913#0.24 -618189913#0.90 -618189913#0.190 -618189913#0.204 -618189913#0.219 -618189913#0.231 -694455409#6 -694455409#6.8 -694455409#6.11 -694455409#6.20 -694455409#6.38 -694455409#5 -694455409#5.10 -694455409#5.23 -694455409#5.42 -694455409#5.118 -694455409#4 -694455409#4.29 -694455409#3 -694455409#3.4 -694455409#3.6 -694455409#3.10 -694455409#3.32 -694455409#3.62 -694455409#3.77 -694455409#3.89 -11154779#9 -11154779#9.12 -11154779#9.13 -11154779#9.29 -11154779#9.62 -11154779#9.78 -11154779#9.117 -11154779#9.139 6338567#4 6338567#4.78 6338567#5 6338567#5.8 6338567#6 -6336095#1 -6336095#1.9 -6336095#1.38 -6336095#1.51 -6336095#1.63 -6336095#1.72 -6336095#0 -6336095#0.21 -6336095#0.39 -6336095#0.60 -6336095#0.78 -6336095#0.98 -6336095#0.108 -6336095#0.122 -6336095#0.134 -6336095#0.146 -6336095#0.159 -6336095#0.173 -6336095#0.189 -6336095#0.197 -6336095#0.203 -6336095#0.213 -6336095#0.219 -193256686#17 -193256686#17.11 -193256686#17.27 -193256686#17.62 -193256686#17.71 -193256686#16 -193256686#16.14 -193256686#16.26 -193256686#16.40 -193256686#16.54 -193256686#16.68 -193256686#16.103 -193256686#16.120 -193256686#15 -193256686#15.16 -193256686#15.31 -193256686#15.44 -193256686#15.66 -193256686#15.91 -193256686#15.106 -193256686#14 -193256686#14.15 -193256686#14.42 -193256686#14.52 -193256686#14.56 6371698#0 6371698#0.8 6371698#0.40 6371698#1 6371698#1.51 6371698#1.66 -6341488#6 -6341488#5 -6341488#5.27 -6341488#5.44 -6341488#5.62 -6341488#5.81 -6341488#5.125 -6341488#5.146 -6341488#5.159 -6341488#5.173 -6341488#5.186 -6341488#5.210 -6341488#5.226 -6341488#4 -6341488#4.10 -6341488#4.17 -6341488#4.26 6359553 6359553.20 6359553.30 6359553.40 6359553.50 6359553.61 6359553.103 6359553.114 6359553.123 6359553.148 -190579762#1 -190579762#1.18 -190579762#1.34 -190579762#1.48 -190579762#1.61 -190579762#1.72 -190579762#0 -190579762#0.9 -190579762#0.20 -190579762#0.30 -190579762#0.41 -190579762#0.48 -190579762#0.50 -6400759 -6400759.10 -6400759.12 190579817#0 190579817#0.11 190579817#1 190579817#1.5 190579817#1.14 190579817#1.25 190579817#1.37 190579817#1.55 190579817#1.68 6333513#0 6333513#0.10 6333513#0.40 6333513#0.51 6333513#0.62 6333513#0.73 6407689#0 -11043364#4 -11043364#3 -11043364#2 -11043364#1 -11043364#0 -11043364#0.73 -11043364#0.81 -7857575#1 -7857575#1.27 -7857575#1.57 -7857575#1.75 -7857575#1.83 -7857575#1.99 -7857575#1.115 -7857575#1.152 -7857575#1.166 -7857575#1.179 -7857575#1.219 -7857575#1.229 -7857575#1.268 -7857575#1.290 -7857575#1.315 -7857575#1.332 -7857575#1.343 -7857575#1.361 -7857575#1.378 -7857575#1.390 -7857575#1.402 -7857575#1.416 -7857575#1.443 -7857575#1.452 -7857575#1.462"/>
</vehicle>
<vehicle id = "veh7" type= "veh_passenger" depart="10815" >
<route edges =" -316633577#1 -316633577#0 -797309094#1 -797309094#0 -797309094#0.6 -797309094#0.12 -797309095 -165864174#3 -165864174#2 -165864174#1 5149904#0 5149904#0.6 5149904#1 5149904#1.2 -201989357 -201989357.7 -201989357.39 -201989357.50 -201989357.52 -6405162#1 -6405162#1.8 -6405162#1.26 -6405162#1.79 -6405162#0 -6405162#0.9 -6405162#0.41 -6405162#0.58 -6405162#0.69 -6405162#0.78 -6405162#0.84 -6405162#0.90 -6356253 -6356253.9 -6356253.18 -6356253.25 -6356253.32 -6356253.183 -6356253.191 -6356253.193 -201989360#2 -201989360#2.6 -201989360#2.14 -201989360#1 -201989360#1.34 -201989360#0 -201989360#0.20 -201989360#0.24 -656030857 -656030854 -21460887 -21460887.18 -201989376 -201989376.8 -201989376.15 -698994088#2 -698994088#1 -698994088#1.18 -698994088#0 -698994088#0.76 -698994089#1 -698994089#1.4 -698994089#0 -21460654 -21460654.2 -21460654.3 -21460654.34 -21460654.121 -21460654.130 -21460654.140 -24620176#2 -24620176#2.10 -24620176#2.23 -24620176#2.35 -24620176#1 -24620176#0 24620192#0 24620192#1 24620192#1.7 24620192#1.15 24620192#1.23 24620192#1.38 24620192#1.60 24620192#1.80 24620178#0 24620178#0.5 24620178#0.25 24620178#1 24620178#1.2 24620178#1.30 24620178#1.44 24620178#1.47 360736209#0 360736209#0.2 360736209#0.4 360736209#0.7 360736209#0.9 360736209#0.12 360736209#1 360736209#1.2 360736209#1.5 360736209#1.7 360736209#1.10 360736209#1.13 360736209#1.15 618175146 618175146.5 618175146.15 618175146.26 618175146.42 618175146.57 618175146.79 618175146.81 24620174 24620174.24 24620174.37 24620174.46 659099712#0 659099712#0.28 659099712#0.35 659099712#1 659099712#2 201989371#0 201989371#1 201989371#1.4 201989371#1.20 201989371#2 201989371#2.4 201989371#2.24 201989371#2.80 201989371#2.102 201989371#2.113 201989371#2.143 201989371#2.151 201989371#2.158 201989371#2.159 201989371#3 201989371#4 201989371#4.9 201989371#4.13 201989371#4.22 -6338294#1 -6338294#0 -6338294#0.13 -6338294#0.33 -6338294#0.79 -6338294#0.94 -6338294#0.100 -6377274#2 -6377274#2.14 -6377274#2.19 -6377274#2.20 -6377274#2.34 -6377274#2.36 -6377274#2.56 -6377274#2.83 -6377274#1 -6377274#1.17 -6377274#1.27 -6377274#0 -6377274#0.5 698805191#0 698805191#0.5 698805191#1 698805191#2 698805190 698805190.31 -517583963#3 -517583963#3.30 -517583963#2 -517583963#2.22 -517583963#1 -517583963#1.13 -517583963#1.28 -517583963#1.48 -517583963#0 -517583963#0.2 -517583963#0.16 -517583963#0.29 24054271 24054271.10 24054271.15 24054271.19 -698994085#1 -7991097#3 -7991097#2 -7991097#2.2 -7991097#2.17 -7991097#1 -7991097#0 -7991097#0.34 -698994082 -698994082.6 -698994082.54 -430174917 -430174917.13 -22273562#0 -22273562#0.5 -22273562#0.14 22273560 22273560.7 22273560.25 22273560.34 22273560.43 22273560.50 22273560.57 22273560.68 22273560.81 -6365504#9 -6365504#9.25 22273567#2 22273567#2.7 184891166 184891177 227756441 227756441.8 227756441.14 227756442#0 227756442#0.17 -23089172#9 -23089172#9.6 -23089172#8 -23089172#7 -23089172#6 -23089172#6.22 -6400775#30 -6400775#30.7 -6400775#30.20 -6400775#29 -6400775#28 -6400775#28.41 -6400775#28.46 -6400775#27 -6400775#27.6 -6400775#26 -6400775#26.2 -6400775#26.21 -6400775#25 -6400775#25.7 -6400775#25.85 -6400775#25.87 -6400775#24 -6400775#24.7 -6400775#24.73 -6400775#23 -6400775#22 -6400775#21 -6400775#21.9 -6400775#21.26 -6400775#21.31 -6400775#21.41 -6400775#20 -6400775#20.16 -6400775#19 -6400775#19.6 -6400775#19.18 -6400775#19.19 -6400775#19.28 -6400775#19.34 -6400775#19.49 -6400775#19.58 -6400775#18 -6400775#18.1 -6400775#18.54 -6400775#17 -6400775#16 -6400775#15 -6400775#15.27 -6400775#15.60 -6400775#15.68 -6400775#15.72 -6400775#15.75 -6400775#14 -6400775#13 -6400775#13.4 -6400775#12 -6400775#11 -6400775#10 -6400775#10.91 -6400775#10.107 -6400775#9 -6400775#9.3 -6400775#8 -6400775#8.2 -6400775#7 -6400775#7.19 -6400775#7.34 -6400775#7.49 -6400775#7.64 -6400775#7.76 -6400775#6 -6400775#6.34 -6400775#5 -6400775#5.24 -6400775#5.53 -6400775#5.72 -6400775#5.79 -6400775#5.83 -6400775#5.99 -6400775#4 -6400775#3 -6400775#3.15 -6400775#3.35 -6400775#3.44 -6400775#3.53 -6400775#3.63 -6400775#3.76 -6400775#3.90 -6400775#3.101 -6400775#3.112 -6400775#3.121 -6400775#2 -6400775#2.9 -6400775#2.16 -6400775#2.23 -6400775#2.29 -6400775#1 -6400775#1.10 -6400775#1.28 -6400775#1.38 -6400775#1.49 -6400775#1.59 -6400775#0 -6400775#0.3 -6400775#0.8 24221419#0 24221419#0.12 24221419#0.22 24221419#0.35 24221419#0.47 24221419#1 24221419#1.10 24221419#2 24221419#2.4 24221419#2.15 24221419#2.26 24221419#2.38 24221419#2.49 24221419#3 24221419#4 24221419#4.8 24221419#4.15 24221419#4.24 24221419#4.32 24221419#4.41 24221419#4.49 24221419#4.57 24221419#4.69 24221419#4.82 24221419#4.94 24221419#4.100 24221419#4.109 24221419#4.119 24221419#4.127 24221419#5 24221419#5.9 24221419#5.16 24221419#5.22 24221419#5.29 -190579762#18 -190579762#18.4 -190579762#18.5 -190579762#18.14 -190579762#18.28 -190579762#18.50 -190579762#18.74 -190579762#17 -190579762#17.47 -190579762#16 -190579762#16.8 -190579762#16.11 -190579762#16.26 -190579762#16.39 -190579762#16.53 -190579762#16.67 -190579762#16.88 -190579762#16.106 -190579762#16.127 -190579762#15 -190579762#14 -190579762#13 -190579762#13.2 -190579762#13.22 -190579762#12 -190579762#12.22 -190579762#11 -190579762#11.4 -190579762#11.17 -190579762#11.28 -190579762#11.40 -190579762#11.52 -190579762#11.98 -190579762#11.111 -190579762#11.126 -190579762#11.141 -190579762#11.146 -190579762#11.153 -190579762#11.157 -190579762#10 -190579762#10.15 -190579762#10.28 -190579762#10.45 -190579762#9 -190579762#9.17 -190579762#9.29 -190579762#9.42 -190579762#9.56 -190579762#9.71 -190579762#9.81 6338567#8 6338567#8.11 6343160 6343160.7 6343160.14 6343160.22 6343160.28 6343160.36 6343160.45 6343160.53 6343160.61 6343160.74 6343160.81 6343160.91 6343160.98 6343160.106 6343160.115 6343160.123 6343160.160 6343160.170 6343160.177 6343160.185 6343160.191 6343160.217 6339085#4 6339085#4.9 6339085#4.19 6339085#4.53 6338567#11 6338567#12 -190579811#1 -190579811#1.12 -190579811#1.20 -190579811#1.36 -190579811#1.50 -190579811#1.69 -190579811#1.82 -190579811#1.101 -190579811#1.120 -190579811#1.121 -11043363#4 -11043363#4.9 -11043363#4.16 -11043363#4.34 -11043363#4.41 -11043363#3 -11043363#3.7 -11043363#2 -11043363#1 -11043363#0 7857575#0 7857575#0.10 7857575#0.24 7857575#0.39 7857575#0.57 7857575#0.75 7857575#0.88 7857575#0.126 7857575#0.144 7857575#0.146 7857575#0.162 7857575#0.184 7857575#0.212 7857575#0.218 7857575#0.224 7857575#0.229 7857575#0.241 7857575#0.275 7857575#0.303 7857575#0.315 7857575#0.324 7857575#0.326 7857575#0.339 7857575#0.350 7857575#0.357 7857575#0.360 7857575#0.410 7857575#1 7857575#1.42 7857575#1.66 7857575#1.85"/>
</vehicle>
<vehicle id = "veh8" type= "veh_passenger" depart="14420" >
<route edges =" 797309093 797309091#0 797309091#0.10 797309091#1 797309091#1.7 797309091#2 797309091#2.10 797309091#2.15 797309091#3 377635148 377635148.3 377635148.5 -437142992 -437142992.6 -6329160 -6329160.124 -6329160.133 785854260#3 785854260#3.11 785854260#3.30 -763290363 -763290363.11 -24620691#4 -24620691#3 -24620691#2 -24620691#1 -6338310#3 -6338310#3.7 -6338310#2 -6338310#2.89 -188703042#0 -188703042#0.9 -188703042#0.21 -6329505#1 -6329505#1.9 -6329505#1.18 -6329505#1.26 -6329505#1.79 -6329505#1.88 -6329505#1.97 -6329505#1.104 -6329505#0 -201989352#2 -201989352#2.8 -201989352#1 -201989352#1.9 -201989352#1.29 -201989352#0 -195430724#15 -195430724#14 -195430724#14.20 -195430724#13 -195430724#13.78 10585275#1 10585275#1.9 10585275#2 -6357225 -6357225.7 -6332541#0 -6332541#0.83 -195430724#9 -195430724#8 -195430724#7 -195430724#7.8 -195430724#6 -195430724#6.35 -195430724#5 -195430724#5.10 -195430724#5.24 -195430724#4 -195430724#3 -195430724#3.5 -195430724#3.137 -164659473#12 -164659473#12.8 6360234#4 6360234#5 6360234#5.24 6360234#5.33 -168627934#0 -168627934#0.7 -34811472#12 -34811472#12.8 -34811472#11 -34811472#10 -34811472#9 -34811472#9.6 -34811472#9.49 -34811472#8 -34811472#7 -34811472#6 202317716#5 202317716#6 202317716#7 202317716#8 202317716#8.63 202317716#9 202317716#9.7 202317716#10 202317716#10.12 202317716#11 202317716#11.3 202317716#12 202317716#12.6 -164659473#5 -164659473#5.13 -164659473#4 -6404484 24024250#5 24024250#5.66 24024250#6 742663483#0 742663483#1 742663483#1.35 742663483#1.56 742663483#1.77 742663483#1.84 742663483#2 415878804#0 415878804#1 415878803#0 415878803#1 541334900#0 541334900#1 541334900#2 541334900#3 541334900#4 541334900#5 541334900#6 698994092#3 698994092#4 698994092#4.84 6348015 6348015.7 761330890 761330889#0 761330889#1 761330889#2 761330889#3 761330889#3.83 761330889#4 517593873#2 517593873#2.29 517593873#3 415876778 22278225#0 22278225#0.24 22278225#1 22278225#1.6 22278225#1.16 22278225#1.26 196779231#0 196779231#0.12 196779231#1 196779231#1.17 21452694#0 21452694#0.5 21452694#0.7 21452694#0.9 21452694#0.14 21452694#0.21 21452694#0.27 21452694#0.101 21452694#1 21452694#1.9 21452694#1.14 21452694#1.27 21452694#2 415878130#0 415878130#1 415878131#0 415878131#1 682209186 196779232 196779232.9 415878126 415878126.6 415878137#0 415878137#1 194859188#0 194859188#1 194859188#1.24 415878134#0 415878134#1 202177316#0 202177316#1 202177316#2 415878127 415878127.3 415878136#0 415878136#1 -417694700#1 -417694700#0 -417694700#0.27 -21452801#14 -21452801#14.52 -21452801#14.110 -21452801#13 -21452801#13.45 -21452801#13.82 -21452801#13.88 -21452801#12 -21452801#12.7 -21452801#12.36 -21452801#11 -21452801#10 -21452801#10.1 -21452801#10.21 -21452801#9 363370637#4 363370637#5 363370637#6 363370637#6.48 -22273544#1 -22273544#1.6 -22273544#1.107 -22273544#0 -22273544#0.36 -22273544#0.38 22273546#2 22273546#2.1 22273546#2.2 22273546#2.4 22273546#2.5 22273546#3 22273546#3.1 22273546#3.3 22273546#3.4 22273546#3.6 -22278234 -22278234.3 -22278234.5 -22278234.190 -618189913#5 -618189913#5.7 -618189913#5.17 -618189913#5.34 -618189913#4 -618189913#4.5 -618189913#4.9 -618189913#4.25 -618189913#3 -618189913#2 -618189913#1 -618189913#1.76 -618189913#1.91 -618189913#0 -618189913#0.6 -618189913#0.24 -618189913#0.90 -618189913#0.190 -618189913#0.204 -618189913#0.219 -618189913#0.231 -574377108 -574377108.11 -574377108.13 -574377108.26 -574377108.70 -541338171#1 -541338171#1.9 -541338171#1.51 -541338171#1.98 -541338171#1.143 -541338171#0 -6332167#1 -6332167#1.11 -6332167#1.29 -6332167#1.51 -6332167#1.66 -6332167#1.79 -6332167#1.100 -6332167#1.119 -6332167#1.134 6351007#2 6351007#2.8 6386692#2 6386692#3 6386692#3.3 6386692#3.6 6386692#3.9 6338567#0 6338567#0.10 6338567#0.118 6338567#1 6338567#1.107 6338567#2 6338567#3 6338567#3.80 11154779#9 11154779#9.12 11154779#9.34 11154779#9.73 11154779#9.89 11154779#9.122 11154779#9.137 11154779#9.139 -694455409#1 -694455409#1.21 -694455409#0 -694455409#0.15 -694455409#0.26 -694455409#0.37 -694455409#0.48 -694455409#0.58 -694455409#0.68 -694455409#0.104 -694455409#0.109 -694455409#0.119 6338567#5 6338567#5.8 -6341488#12 -6341488#12.15 -6341488#12.26 -6341488#12.42 -6341488#12.55 -6341488#12.74 -6341488#11 -6341488#11.22 -6341488#11.37 -6341488#11.49 6372213#0 6372213#0.4 6372213#0.9 6372213#0.33 6372213#0.57 6372213#0.86 6372213#1 6372213#1.9 6372213#1.21 6372213#1.68 6372213#1.81 6372213#1.88 6372213#1.98 6372213#1.111 6369262#1 6369262#1.18 6369262#1.31 6369262#1.47 6369262#1.71 -190579762#6 -190579762#6.13 -190579762#6.17 -190579762#6.26 -190579762#5 -190579762#5.9 -190579762#5.19 -190579762#5.29 -190579762#5.41 -190579762#5.62 -190579762#5.74 -190579762#5.86 -190579762#4 -190579762#3 -190579762#3.10 -190579762#3.21 -190579762#3.33 -190579762#2 -190579762#2.16 -190579762#2.48 -190579762#2.68 -190579762#2.85 -190579762#2.102 -190579762#2.117 -190579762#2.139 -190579762#2.141 -190579762#1 -190579762#1.18 -190579762#1.34 -190579762#1.48 -190579762#1.61 -190579762#1.72 -190579762#0 -190579762#0.9 -190579762#0.20 -190579762#0.30 -190579762#0.41 -190579762#0.48 -190579762#0.50 -6400759 -6400759.10 -6400759.12 190579817#0 190579817#0.11 190579817#1 190579817#1.5 190579817#1.14 190579817#1.25 190579817#1.37 190579817#1.55 190579817#1.68 6333513#0 6333513#0.10 6333513#0.40 6333513#0.51 6333513#0.62 6333513#0.73 6407689#0 -11043364#4 6344393 6344393.33 6344393.38 6344393.42 6344393.48 -11043364#2 -11043364#1 -11043364#0 -11043364#0.73 -11043364#0.81 -7857575#1 -7857575#1.27 -7857575#1.57 -7857575#1.75 -7857575#1.83 -7857575#1.99 -7857575#1.115 -7857575#1.152 -7857575#1.166 -7857575#1.179 -7857575#1.219 -7857575#1.229 -7857575#1.268 -7857575#1.290 -7857575#1.315 -7857575#1.332 -7857575#1.343 -7857575#1.361 -7857575#1.378 -7857575#1.390 -7857575#1.402 -7857575#1.416 -7857575#1.443 -7857575#1.452 -7857575#1.462"/>
</vehicle>
<vehicle id = "veh9" type= "veh_passenger" depart="14420" >
<route edges =" -316633577#1 -316633577#0 -797309094#1 -797309094#0 -797309094#0.6 -797309094#0.12 -797309095 -165864174#3 -165864174#2 -165864174#1 5149904#0 5149904#0.6 5149904#1 5149904#1.2 201989355#0 201989355#1 201989355#2 201989355#2.19 201989355#2.49 678979330 678979330.18 24620199 24620199.9 24620199.11 -6405162#1 -6405162#1.8 -6405162#1.26 -6405162#1.79 -6405162#0 -6405162#0.9 -6405162#0.41 -6405162#0.58 -6405162#0.69 -6405162#0.78 -6405162#0.84 -6405162#0.90 -6356253 -6356253.9 -6356253.18 -6356253.25 -6356253.32 -6356253.183 -6356253.191 -6356253.193 -201989360#2 -201989360#2.6 -201989360#2.14 -201989360#1 -201989360#1.34 -201989360#0 -201989360#0.20 -201989360#0.24 -656030857 -656030854 -21460887 -21460887.18 -201989376 -201989376.8 -201989376.15 -698994088#2 -698994088#1 -698994088#1.18 -698994088#0 -698994088#0.76 -698994089#1 -698994089#1.4 -698994089#0 -21460654 -21460654.2 -21460654.3 -21460654.34 -21460654.121 -21460654.130 -21460654.140 -24620176#2 -24620176#2.10 -24620176#2.23 -24620176#2.35 -24620176#1 -24620176#0 24620192#0 24620192#1 24620192#1.7 24620192#1.15 24620192#1.23 24620192#1.38 24620192#1.60 24620192#1.80 24620178#0 24620178#0.5 24620178#0.25 24620178#1 24620178#1.2 24620178#1.30 24620178#1.44 24620178#1.47 360736209#0 360736209#0.2 360736209#0.4 360736209#0.7 360736209#0.9 360736209#0.12 360736209#1 360736209#1.2 360736209#1.5 360736209#1.7 360736209#1.10 360736209#1.13 360736209#1.15 618175146 618175146.5 618175146.15 618175146.26 618175146.42 618175146.57 618175146.79 618175146.81 24620174 24620174.24 24620174.37 24620174.46 659099712#0 659099712#0.28 659099712#0.35 659099712#1 659099712#2 201989371#0 201989371#1 201989371#1.4 201989371#1.20 201989371#2 201989371#2.4 201989371#2.24 201989371#2.80 201989371#2.102 201989371#2.113 201989371#2.143 201989371#2.151 201989371#2.158 201989371#2.159 201989371#3 201989371#4 201989371#4.9 201989371#4.13 201989371#4.22 -6338294#1 -6338294#0 -6338294#0.13 -6338294#0.33 -6338294#0.79 -6338294#0.94 -6338294#0.100 -6377274#2 -6377274#2.14 -6377274#2.19 -6377274#2.20 -6377274#2.34 -6377274#2.36 -6377274#2.56 -6377274#2.83 -6377274#1 -6377274#1.17 -6377274#1.27 -6377274#0 -6377274#0.5 698805191#0 698805191#0.5 698805191#1 698805191#2 698805190 698805190.31 -517583963#3 -517583963#3.30 -517583963#2 -517583963#2.22 -517583963#1 -517583963#1.13 -517583963#1.28 -517583963#1.48 -517583963#0 -517583963#0.2 -517583963#0.16 -517583963#0.29 -195433870#1 -7991097#3 -7991097#2 -7991097#2.2 -7991097#2.17 -7991097#1 -7991097#0 -7991097#0.34 -23089172#13 -23089172#13.7 -23089172#12 -23089172#11 -23089172#10 -23089172#10.58 -227756442#0 -227756442#0.6 184891171 184891171.8 184891171.14 -184891177 -184891166 -22273567#2 -22273567#2.26 -6365504#8 -6365504#8.5 -6365504#7 -6365504#6 -6365504#6.53 -6400775#27 -6400775#27.6 -6400775#26 -6400775#26.2 -6400775#26.21 -6400775#25 -6400775#25.7 -6400775#25.85 -6400775#25.87 -6400775#24 -6400775#24.7 -6400775#24.73 -6400775#23 -6400775#22 -6400775#21 -6400775#21.9 -6400775#21.26 -6400775#21.31 -6400775#21.41 -6400775#20 -6400775#20.16 -6400775#19 -6400775#19.6 -6400775#19.18 -6400775#19.19 -6400775#19.28 -6400775#19.34 -6400775#19.49 -6400775#19.58 -6400775#18 -6400775#18.1 -6400775#18.54 -6400775#17 -6400775#16 -6400775#15 -6400775#15.27 -6400775#15.60 -6400775#15.68 -6400775#15.72 -6400775#15.75 -6400775#14 -6400775#13 -6400775#13.4 -6400775#12 -6400775#11 -6400775#10 -6400775#10.91 -6400775#10.107 -6400775#9 -6400775#9.3 -6400775#8 -6400775#8.2 -6400775#7 -6400775#7.19 -6400775#7.34 -6400775#7.49 -6400775#7.64 -6400775#7.76 -6400775#6 -6400775#6.34 -6400775#5 -6400775#5.24 -6400775#5.53 -6400775#5.72 -6400775#5.79 -6400775#5.83 -6400775#5.99 -6400775#4 -6400775#3 -6400775#3.15 -6400775#3.35 -6400775#3.44 -6400775#3.53 -6400775#3.63 -6400775#3.76 -6400775#3.90 -6400775#3.101 -6400775#3.112 -6400775#3.121 -6400775#2 -6400775#2.9 -6400775#2.16 -6400775#2.23 -6400775#2.29 -6400775#1 -6400775#1.10 -6400775#1.28 -6400775#1.38 -6400775#1.49 -6400775#1.59 -6400775#0 -6400775#0.3 -6400775#0.8 24221419#0 24221419#0.12 24221419#0.22 24221419#0.35 24221419#0.47 24221419#1 24221419#1.10 24221419#2 24221419#2.4 24221419#2.15 24221419#2.26 24221419#2.38 24221419#2.49 24221419#3 24221419#4 24221419#4.8 24221419#4.15 24221419#4.24 24221419#4.32 24221419#4.41 24221419#4.49 24221419#4.57 24221419#4.69 24221419#4.82 24221419#4.94 24221419#4.100 24221419#4.109 24221419#4.119 24221419#4.127 24221419#5 24221419#5.9 24221419#5.16 24221419#5.22 24221419#5.29 -190579762#18 -190579762#18.4 -190579762#18.5 -190579762#18.14 -190579762#18.28 -190579762#18.50 -190579762#18.74 -190579762#17 -190579762#17.47 -190579762#16 -190579762#16.8 -190579762#16.11 -190579762#16.26 -190579762#16.39 -190579762#16.53 -190579762#16.67 -190579762#16.88 -190579762#16.106 -190579762#16.127 -190579762#15 -190579762#14 -190579762#13 -190579762#13.2 -190579762#13.22 -190579762#12 -190579762#12.22 -190579762#11 -190579762#11.4 -190579762#11.17 -190579762#11.28 -190579762#11.40 -190579762#11.52 -190579762#11.98 -190579762#11.111 -190579762#11.126 -190579762#11.141 -190579762#11.146 -190579762#11.153 -190579762#11.157 -6336095#2 -6336095#2.10 -6336095#2.139 -6336095#2.157 6338567#7 6338567#7.90 6338567#8 6338567#8.11 6338567#9 6338567#10 6338567#11 6338567#12 -190579811#1 -190579811#1.12 -190579811#1.20 -190579811#1.36 -190579811#1.50 -190579811#1.69 -190579811#1.82 -190579811#1.101 -190579811#1.120 -190579811#1.121 -11043363#4 -11043363#4.9 -11043363#4.16 -11043363#4.34 -11043363#4.41 -11043363#3 -11043363#3.7 -11043363#2 -11043363#1 -11043363#0 7857575#0 7857575#0.10 7857575#0.24 7857575#0.39 7857575#0.57 7857575#0.75 7857575#0.88 7857575#0.126 7857575#0.144 7857575#0.146 7857575#0.162 7857575#0.184 7857575#0.212 7857575#0.218 7857575#0.224 7857575#0.229 7857575#0.241 7857575#0.275 7857575#0.303 7857575#0.315 7857575#0.324 7857575#0.326 7857575#0.339 7857575#0.350 7857575#0.357 7857575#0.360 7857575#0.410 7857575#1 7857575#1.42 7857575#1.66 7857575#1.85"/>
</vehicle>
<vehicle id = "veh10" type= "veh_passenger" depart="18025" >
<route edges =" 797309093 797309091#0 797309091#0.10 797309091#1 797309091#1.7 797309091#2 797309091#2.10 797309091#2.15 797309091#3 377635148 377635148.3 377635148.5 -437142992 -437142992.6 -6329160 -6329160.124 -6329160.133 785854260#3 785854260#3.11 785854260#3.30 -763290363 -763290363.11 -24620691#4 -24620691#3 -6347955 -6347955.7 -188703042#2 -188703042#1 -188703042#1.59 -188703042#1.74 -188703042#0 -188703042#0.9 -188703042#0.21 -188703049 -201989352#2 -201989352#2.8 -201989352#1 -201989352#1.9 -201989352#1.29 -201989352#0 -195430724#15 -195430724#14 -195430724#14.20 -195430724#13 -195430724#13.78 -195430724#12 -195430724#12.8 -195430724#12.12 -195430724#11 -195430724#11.17 -164659478#5 -164659478#5.7 -6360234#6 -6360234#6.186 -6360234#6.194 -168627934#0 -168627934#0.7 -34811472#12 -34811472#12.8 -34811472#11 -34811472#10 -34811472#9 -34811472#9.6 -34811472#9.49 -34811472#8 -34811472#7 -34811472#6 202317716#5 202317716#6 202317716#7 202317716#8 202317716#8.63 -164659438#2 -164659438#2.12 -164659438#1 -164659438#1.55 -25316538#4 -25316538#4.92 164659473#3 164659473#3.7 -6404484 -24024250#4 -24024250#4.80 -25316538#0 21455622#0 21455622#0.7 21455622#1 196779227#0 196779227#0.7 196779227#1 196779227#2 196779227#3 541335063#0 541335063#1 541335063#2 196779228#0 196779228#1 196779228#2 196779228#3 196779228#4 196779228#5 196779228#6 196779228#6.35 43256415 43256415.22 -6345181#8 -6345181#8.4 -6345181#8.7 -6345181#8.93 541334899#0 541334899#0.7 541334899#1 541334899#2 541334899#3 541334899#4 541334899#5 541334900#0 541334900#1 541334900#2 541334900#3 541334900#4 541334900#5 541334900#6 698994092#3 698994092#4 698994092#4.84 6348015 6348015.7 761330890 761330889#0 761330889#1 761330889#2 761330889#3 761330889#3.83 761330889#4 517593873#2 517593873#2.29 517593873#3 415876778 22278225#0 22278225#0.24 22278225#1 22278225#1.6 22278225#1.16 22278225#1.26 196779231#0 196779231#0.12 196779231#1 196779231#1.17 21452694#0 21452694#0.5 21452694#0.7 21452694#0.9 21452694#0.14 21452694#0.21 21452694#0.27 21452694#0.101 21452694#1 21452694#1.9 21452694#1.14 21452694#1.27 21452694#2 415878130#0 415878130#1 415878131#0 415878131#1 682209186 196779232 196779232.9 415878126 415878126.6 415878137#0 415878137#1 22372598#1 22372598#2 22372598#3 -6391592#1 -6391592#1.7 -6391592#0 -6391592#0.14 781008559#0 781008559#1 781008559#2 781008559#3 202177316#0 202177316#1 202177316#2 415878127 415878127.3 415878136#0 415878136#1 -417694700#1 -417694700#0 -417694700#0.27 -21452801#14 -21452801#14.52 -21452801#14.110 -21452801#13 -21452801#13.45 -21452801#13.82 -21452801#13.88 24314605#16 24314605#16.7 24314605#16.11 24314605#16.82 24314605#16.86 -168627975 -168627975.12 -168627975.22 -168627975.32 -168627975.40 -190255052 -190255052.19 -190255052.22 -190255052.149 -22273544#1 -22273544#1.6 -22273544#1.107 -22273544#0 -22273544#0.36 -22273544#0.38 22273546#2 22273546#2.1 22273546#2.2 22273546#2.4 22273546#2.5 22273546#3 22273546#3.1 22273546#3.3 22273546#3.4 22273546#3.6 -22278234 -22278234.3 -22278234.5 -22278234.190 -193256683#1 -193256683#1.8 -193256683#0 -36985599#3 -36985599#2 -36985599#2.120 -36985599#2.132 -36985599#2.140 -36985599#2.155 -36985599#2.166 -36985599#1 -36985599#1.11 -36985599#1.17 -36985599#0 -36985598 -6372698#3 -6372698#3.4 -6372698#2 -6372698#2.9 -6372698#2.152 -22277719#7 -22277719#7.7 -22277719#7.92 -618189913#0 -618189913#0.6 -618189913#0.24 -618189913#0.90 -618189913#0.190 -618189913#0.204 -618189913#0.219 -618189913#0.231 -694455409#6 -694455409#6.8 -694455409#6.11 -694455409#6.20 -694455409#6.38 -694455409#5 -694455409#5.10 -694455409#5.23 -694455409#5.42 -694455409#5.118 -694455409#4 -694455409#4.29 -694455409#3 -694455409#3.4 -694455409#3.6 -694455409#3.10 -694455409#3.32 -694455409#3.62 -694455409#3.77 -694455409#3.89 -694455409#1 -694455409#1.21 -694455409#0 -694455409#0.15 -694455409#0.26 -694455409#0.37 -694455409#0.48 -694455409#0.58 -694455409#0.68 -694455409#0.104 -694455409#0.109 -694455409#0.119 6338567#5 6338567#5.8 -6341488#12 -6341488#12.15 -6341488#12.26 -6341488#12.42 -6341488#12.55 -6341488#12.74 -6341488#11 -6341488#11.22 -6341488#11.37 -6341488#11.49 6372213#0 6372213#0.4 6372213#0.9 6372213#0.33 6372213#0.57 6372213#0.86 6372213#1 6372213#1.9 6372213#1.21 6372213#1.68 6372213#1.81 6372213#1.88 6372213#1.98 6372213#1.111 6369262#1 6369262#1.18 6369262#1.31 6369262#1.47 6369262#1.71 -190579762#6 -190579762#6.13 -190579762#6.17 -190579762#6.26 6369249 6369249.10 6369249.21 6369249.36 6369249.43 6369249.50 6369249.115 6369249.121 6369249.128 6369249.135 6369249.142 6369249.176 6369249.181 -6339085#2 -6339085#2.14 -6339085#2.26 -6339085#2.37 -6339085#2.49 -6339085#2.63 -6339085#2.115 -6339085#2.125 -6339085#2.140 -6339085#1 -6339085#0 -6339085#0.12 -6339085#0.27 -6339085#0.45 -6339085#0.77 -6339085#0.87 -6339085#0.98 -6339085#0.119 -6339085#0.129 -190579779#0 -190579779#0.109 -190579779#0.117 6333513#0 6333513#0.10 6333513#0.40 6333513#0.51 6333513#0.62 6333513#0.73 6407689#0 6407689#1 6407689#1.22 6407689#1.35 6407689#1.53 6407689#1.68 6407689#1.82 -6352134#2 -6352134#2.15 -6352134#2.29 -6352134#2.47 -6352134#2.62 -6352134#2.110 -6352134#1 -6352134#0 -6352134#0.20 -6352134#0.39 -6352134#0.53 -6352134#0.63 -6352134#0.79 -11043364#1 -11043364#0 -11043364#0.73 -11043364#0.81 -7857575#1 -7857575#1.27 -7857575#1.57 -7857575#1.75 -7857575#1.83 -7857575#1.99 -7857575#1.115 -7857575#1.152 -7857575#1.166 -7857575#1.179 -7857575#1.219 -7857575#1.229 -7857575#1.268 -7857575#1.290 -7857575#1.315 -7857575#1.332 -7857575#1.343 -7857575#1.361 -7857575#1.378 -7857575#1.390 -7857575#1.402 -7857575#1.416 -7857575#1.443 -7857575#1.452 -7857575#1.462"/>
</vehicle>
<vehicle id = "veh11" type= "veh_passenger" depart="18025" >
<route edges =" -316633577#1 -316633577#0 -6340080#2 -6340080#1 -6340080#0 -6340080#0.27 -201989373 -201989373.4 -201989373.9 -201989373.42 678979330 678979330.18 24620199 24620199.9 24620199.11 -6405162#1 -6405162#1.8 -6405162#1.26 -6405162#1.79 -6405162#0 -6405162#0.9 -6405162#0.41 -6405162#0.58 -6405162#0.69 -6405162#0.78 -6405162#0.84 -6405162#0.90 -6356253 -6356253.9 -6356253.18 -6356253.25 -6356253.32 -6356253.183 -6356253.191 -6356253.193 -201989360#2 -201989360#2.6 -201989360#2.14 -201989360#1 -201989360#1.34 -201989360#0 -201989360#0.20 -201989360#0.24 -656030857 -656030854 -21460887 -21460887.18 -201989376 -201989376.8 -201989376.15 -698994088#2 -698994088#1 -698994088#1.18 -698994088#0 -698994088#0.76 -698994089#1 -698994089#1.4 -698994089#0 -21460654 -21460654.2 -21460654.3 -21460654.34 -21460654.121 -21460654.130 -21460654.140 -24620176#2 -24620176#2.10 -24620176#2.23 -24620176#2.35 -24620176#1 -24620176#0 21459815#0 21459815#1 -6339489#1 -6339489#1.6 -6339489#0 -6339489#0.112 -6339489#0.116 -6339489#0.117 -7781335 -7781335.7 -7781335.9 -7781335.148 -7781335.152 -6403136 -6403136.5 -6403136.98 -6403136.101 659099712#0 659099712#0.28 659099712#0.35 659099712#1 659099712#2 201989371#0 201989371#1 201989371#1.4 201989371#1.20 201989371#2 201989371#2.4 201989371#2.24 201989371#2.80 201989371#2.102 201989371#2.113 201989371#2.143 201989371#2.151 201989371#2.158 201989371#2.159 201989371#3 201989371#4 201989371#4.9 201989371#4.13 201989371#4.22 -6338294#1 -6338294#0 -6338294#0.13 -6338294#0.33 -6338294#0.79 -6338294#0.94 -6338294#0.100 -6377274#2 -6377274#2.14 -6377274#2.19 -6377274#2.20 -6377274#2.34 -6377274#2.36 -6377274#2.56 -6377274#2.83 -6377274#1 -6377274#1.17 -6377274#1.27 -6377274#0 -6377274#0.5 698805191#0 698805191#0.5 698805191#1 698805191#2 698805190 698805190.31 -517583963#3 -517583963#3.30 -517583963#2 -517583963#2.22 -517583963#1 -517583963#1.13 -517583963#1.28 -517583963#1.48 -517583963#0 -517583963#0.2 -517583963#0.16 -517583963#0.29 -195433870#1 -7991097#3 -7991097#2 -7991097#2.2 -7991097#2.17 -7991097#1 -7991097#0 -7991097#0.34 -23089172#13 -23089172#13.7 -23089172#12 -23089172#11 -23089172#10 -23089172#10.58 -23089172#9 -23089172#9.6 -23089172#8 -23089172#7 -23089172#6 -23089172#6.22 -6400775#30 -6400775#30.7 -6400775#30.20 -6400775#29 -6400775#28 -6400775#28.41 -6400775#28.46 -6400775#27 -6400775#27.6 -6400775#26 -6400775#26.2 -6400775#26.21 -6400775#25 -6400775#25.7 -6400775#25.85 -6400775#25.87 -6400775#24 -6400775#24.7 -6400775#24.73 -6400775#23 -6400775#22 -6400775#21 -6400775#21.9 -6400775#21.26 -6400775#21.31 -6400775#21.41 -6400775#20 -6400775#20.16 -6400775#19 -6400775#19.6 -6400775#19.18 -6400775#19.19 -6400775#19.28 -6400775#19.34 -6400775#19.49 -6400775#19.58 -6400775#18 -6400775#18.1 -6400775#18.54 -6400775#17 -6400775#16 -6400775#15 -6400775#15.27 -6400775#15.60 -6400775#15.68 -6400775#15.72 -6400775#15.75 -6400775#14 -6400775#13 -6400775#13.4 -6400775#12 -6400775#11 -6400775#10 -6400775#10.91 -6400775#10.107 -6400775#9 -6400775#9.3 -6400775#8 -6400775#8.2 -6400775#7 -6400775#7.19 -6400775#7.34 -6400775#7.49 -6400775#7.64 -6400775#7.76 -6400775#6 -6400775#6.34 -6400775#5 -6400775#5.24 -6400775#5.53 -6400775#5.72 -6400775#5.79 -6400775#5.83 -6400775#5.99 -6400775#4 -6400775#3 -6400775#3.15 -6400775#3.35 -6400775#3.44 -6400775#3.53 -6400775#3.63 -6400775#3.76 -6400775#3.90 -6400775#3.101 -6400775#3.112 -6400775#3.121 -6400775#2 -6400775#2.9 -6400775#2.16 -6400775#2.23 -6400775#2.29 -6400775#1 -6400775#1.10 -6400775#1.28 -6400775#1.38 -6400775#1.49 -6400775#1.59 -6400775#0 -6400775#0.3 -6400775#0.8 24221419#0 24221419#0.12 24221419#0.22 24221419#0.35 24221419#0.47 24221419#1 24221419#1.10 24221419#2 24221419#2.4 24221419#2.15 24221419#2.26 24221419#2.38 24221419#2.49 24221419#3 24221419#4 24221419#4.8 24221419#4.15 24221419#4.24 24221419#4.32 24221419#4.41 24221419#4.49 24221419#4.57 24221419#4.69 24221419#4.82 24221419#4.94 24221419#4.100 24221419#4.109 24221419#4.119 24221419#4.127 24221419#5 24221419#5.9 24221419#5.16 24221419#5.22 24221419#5.29 -190579762#18 -190579762#18.4 -190579762#18.5 -190579762#18.14 -190579762#18.28 -190579762#18.50 -190579762#18.74 -190579762#17 -190579762#17.47 -190579762#16 -190579762#16.8 -190579762#16.11 -190579762#16.26 -190579762#16.39 -190579762#16.53 -190579762#16.67 -190579762#16.88 -190579762#16.106 -190579762#16.127 -190579762#15 -190579762#14 -190579762#13 -190579762#13.2 -190579762#13.22 -190579762#12 -190579762#12.22 -190579762#11 -190579762#11.4 -190579762#11.17 -190579762#11.28 -190579762#11.40 -190579762#11.52 -190579762#11.98 -190579762#11.111 -190579762#11.126 -190579762#11.141 -190579762#11.146 -190579762#11.153 -190579762#11.157 -190579762#10 -190579762#10.15 -190579762#10.28 -190579762#10.45 -190579762#9 -190579762#9.17 -190579762#9.29 -190579762#9.42 -190579762#9.56 -190579762#9.71 -190579762#9.81 6338567#8 6338567#8.11 6338567#9 6338567#10 6338567#11 6338567#12 -190579811#1 -190579811#1.12 -190579811#1.20 -190579811#1.36 -190579811#1.50 -190579811#1.69 -190579811#1.82 -190579811#1.101 -190579811#1.120 -190579811#1.121 -11043363#4 -11043363#4.9 -11043363#4.16 -11043363#4.34 -11043363#4.41 -11043363#3 -11043363#3.7 -11043363#2 -11043363#1 -11043363#0 7857575#0 7857575#0.10 7857575#0.24 7857575#0.39 7857575#0.57 7857575#0.75 7857575#0.88 7857575#0.126 7857575#0.144 7857575#0.146 7857575#0.162 7857575#0.184 7857575#0.212 7857575#0.218 7857575#0.224 7857575#0.229 7857575#0.241 7857575#0.275 7857575#0.303 7857575#0.315 7857575#0.324 7857575#0.326 7857575#0.339 7857575#0.350 7857575#0.357 7857575#0.360 7857575#0.410 7857575#1 7857575#1.42 7857575#1.66 7857575#1.85"/>
</vehicle>
<vehicle id = "veh12" type= "veh_passenger" depart="21630" >
<route edges =" 797309093 797309091#0 797309091#0.10 797309091#1 797309091#1.7 797309091#2 797309091#2.10 797309091#2.15 797309091#3 377635148 377635148.3 377635148.5 -437142992 -437142992.6 -6329160 -6329160.124 -6329160.133 785854260#3 785854260#3.11 785854260#3.30 785854260#4 785854260#4.14 785854260#4.73 785854260#5 -20625899 -20625899.13 -20625899.430 6344478 6344478.10 -201989358#4 -201989358#4.8 -201989358#4.92 -201989358#4.97 -201989358#3 -201989358#2 -201989358#2.18 -201989358#1 -201989358#1.6 -201989358#1.82 -201989358#0 -195430724#15 -195430724#14 -195430724#14.20 -195430724#13 -195430724#13.78 -195430724#12 -195430724#12.8 -195430724#12.12 -195430724#11 -195430724#11.17 -164659478#5 -164659478#5.7 -164659478#4 -6362542#1 -6362542#1.7 -6362542#0 -6362542#0.104 -34811472#12 -34811472#12.8 -34811472#11 -34811472#10 -34811472#9 -34811472#9.6 -34811472#9.49 -34811472#8 -34811472#7 -34811472#6 202317716#5 202317716#6 202317716#7 202317716#8 202317716#8.63 -164659438#2 -164659438#2.12 -164659438#1 -164659438#1.55 -25316538#4 -25316538#4.92 164659473#3 164659473#3.7 -6404484 24024250#5 24024250#5.66 24024250#6 742663483#0 742663483#1 742663483#1.35 742663483#1.56 742663483#1.77 742663483#1.84 742663483#2 415878804#0 415878804#1 415878803#0 415878803#1 541334786#0 541334786#1 541334786#1.21 541334786#2 -698994093#10 -698994093#9 -698994093#8 -698994093#8.7 -698994093#7 -698994093#7.11 -698994093#6 -698994093#5 -698994093#5.50 -698994093#4 -698994093#4.7 -698994093#3 -698994093#2 -698994093#1 -698994093#0 -698994093#0.12 -698994093#0.22 6348015 6348015.7 761330890 761330889#0 761330889#1 761330889#2 761330889#3 761330889#3.83 761330889#4 517593873#2 517593873#2.29 517593873#3 415876778 22278225#0 22278225#0.24 22278225#1 22278225#1.6 22278225#1.16 22278225#1.26 196779231#0 196779231#0.12 196779231#1 196779231#1.17 21452694#0 21452694#0.5 21452694#0.7 21452694#0.9 21452694#0.14 21452694#0.21 21452694#0.27 21452694#0.101 21452694#1 21452694#1.9 21452694#1.14 21452694#1.27 21452694#2 415878130#0 415878130#1 415878131#0 415878131#1 682209186 196779232 196779232.9 415878126 415878126.6 415878137#0 415878137#1 194859188#0 194859188#1 194859188#1.24 415878134#0 415878134#1 202177316#0 202177316#1 202177316#2 415878127 415878127.3 415878136#0 415878136#1 415876789 195433872 -168627978#4 -168627978#3 -168627978#2 -168627978#1 -168627978#1.20 -168627978#0 -168627978#0.13 -168627978#0.22 -168627978#0.59 -168627978#0.79 -168627978#0.98 -168627978#0.113 -168627978#0.142 -168627975 -168627975.12 -168627975.22 -168627975.32 -168627975.40 22273558 22273558.11 22273558.17 22273558.33 22273558.45 22273558.58 22273558.66 22273558.77 22273558.85 22273558.92 22273558.103 22273558.113 22273558.118 -7990899#2 -7990899#2.27 -7990899#1 -7990899#0 -7990899#0.77 -363370637#7 -363370637#7.92 -22273544#1 -22273544#1.6 -22273544#1.107 -22273544#0 -22273544#0.36 -22273544#0.38 22273546#2 22273546#2.1 22273546#2.2 22273546#2.4 22273546#2.5 22273546#3 22273546#3.1 22273546#3.3 22273546#3.4 22273546#3.6 -22278234 -22278234.3 -22278234.5 -22278234.190 -618189913#5 -618189913#5.7 -618189913#5.17 -618189913#5.34 -618189913#4 -618189913#4.5 -618189913#4.9 -618189913#4.25 -618189913#3 -618189913#2 -618189913#1 -618189913#1.76 -618189913#1.91 -618189913#0 -618189913#0.6 -618189913#0.24 -618189913#0.90 -618189913#0.190 -618189913#0.204 -618189913#0.219 -618189913#0.231 -694455409#6 -694455409#6.8 -694455409#6.11 -694455409#6.20 -694455409#6.38 -694455409#5 -694455409#5.10 -694455409#5.23 -694455409#5.42 -694455409#5.118 -694455409#4 -694455409#4.29 -694455409#3 -694455409#3.4 -694455409#3.6 -694455409#3.10 -694455409#3.32 -694455409#3.62 -694455409#3.77 -694455409#3.89 -694455409#1 -694455409#1.21 -694455409#0 -694455409#0.15 -694455409#0.26 -694455409#0.37 -694455409#0.48 -694455409#0.58 -694455409#0.68 -694455409#0.104 -694455409#0.109 -694455409#0.119 6338567#5 6338567#5.8 6338567#6 6338567#7 6338567#7.90 6338567#8 6338567#8.11 6343160 6343160.7 6343160.14 6343160.22 6343160.28 6343160.36 6343160.45 6343160.53 6343160.61 6343160.74 6343160.81 6343160.91 6343160.98 6343160.106 6343160.115 6343160.123 6343160.160 6343160.170 6343160.177 6343160.185 6343160.191 6343160.217 -6339085#3 -6339085#3.11 -6339085#3.19 -6339085#3.40 -6339085#3.47 -6339085#3.56 -6339085#3.68 -6339085#3.81 -6339085#3.95 -6339085#3.107 -6339085#3.120 -6339085#2 -6339085#2.14 -6339085#2.26 -6339085#2.37 -6339085#2.49 -6339085#2.63 -6339085#2.115 -6339085#2.125 -6339085#2.140 -6339085#1 -6339085#0 -6339085#0.12 -6339085#0.27 -6339085#0.45 -6339085#0.77 -6339085#0.87 -6339085#0.98 -6339085#0.119 -6339085#0.129 -190579779#0 -190579779#0.109 -190579779#0.117 6333513#0 6333513#0.10 6333513#0.40 6333513#0.51 6333513#0.62 6333513#0.73 6407689#0 -11043364#4 -11043364#3 -11043364#2 -11043364#1 -11043364#0 -11043364#0.73 -11043364#0.81 -7857575#1 -7857575#1.27 -7857575#1.57 -7857575#1.75 -7857575#1.83 -7857575#1.99 -7857575#1.115 -7857575#1.152 -7857575#1.166 -7857575#1.179 -7857575#1.219 -7857575#1.229 -7857575#1.268 -7857575#1.290 -7857575#1.315 -7857575#1.332 -7857575#1.343 -7857575#1.361 -7857575#1.378 -7857575#1.390 -7857575#1.402 -7857575#1.416 -7857575#1.443 -7857575#1.452 -7857575#1.462"/>
</vehicle>
<vehicle id = "veh13" type= "veh_passenger" depart="21630" >
<route edges =" -316633577#1 -316633577#0 -6340080#2 -6340080#1 -6340080#0 -6340080#0.27 -201989373 -201989373.4 -201989373.9 -201989373.42 -201989355#2 -201989355#2.8 -201989355#2.38 -201989355#1 -201989355#0 -201989357 -201989357.7 -201989357.39 -201989357.50 -201989357.52 -6405162#1 -6405162#1.8 -6405162#1.26 -6405162#1.79 -6405162#0 -6405162#0.9 -6405162#0.41 -6405162#0.58 -6405162#0.69 -6405162#0.78 -6405162#0.84 -6405162#0.90 -6356253 -6356253.9 -6356253.18 -6356253.25 -6356253.32 -6356253.183 -6356253.191 -6356253.193 -201989360#2 -201989360#2.6 -201989360#2.14 -201989360#1 -201989360#1.34 -201989360#0 -201989360#0.20 -201989360#0.24 -656030857 -656030854 24620194 24620194.9 24620194.16 24620194.19 -698994088#2 -698994088#1 -698994088#1.18 -698994088#0 -698994088#0.76 -698994089#1 -698994089#1.4 -698994089#0 -21460654 -21460654.2 -21460654.3 -21460654.34 -21460654.121 -21460654.130 -21460654.140 -24620176#2 -24620176#2.10 -24620176#2.23 -24620176#2.35 -24620176#1 -24620176#0 24620192#0 24620192#1 24620192#1.7 24620192#1.15 24620192#1.23 24620192#1.38 24620192#1.60 24620192#1.80 24620178#0 24620178#0.5 24620178#0.25 24620178#1 24620178#1.2 24620178#1.30 24620178#1.44 24620178#1.47 360736209#0 360736209#0.2 360736209#0.4 360736209#0.7 360736209#0.9 360736209#0.12 360736209#1 360736209#1.2 360736209#1.5 360736209#1.7 360736209#1.10 360736209#1.13 360736209#1.15 618175146 618175146.5 618175146.15 618175146.26 618175146.42 618175146.57 618175146.79 618175146.81 24620174 24620174.24 24620174.37 24620174.46 659099712#0 659099712#0.28 659099712#0.35 659099712#1 659099712#2 201989371#0 201989371#1 201989371#1.4 201989371#1.20 201989371#2 201989371#2.4 201989371#2.24 201989371#2.80 201989371#2.102 201989371#2.113 201989371#2.143 201989371#2.151 201989371#2.158 201989371#2.159 201989371#3 201989371#4 201989371#4.9 201989371#4.13 201989371#4.22 -6338294#1 -6338294#0 -6338294#0.13 -6338294#0.33 -6338294#0.79 -6338294#0.94 -6338294#0.100 -6377274#2 -6377274#2.14 -6377274#2.19 -6377274#2.20 -6377274#2.34 -6377274#2.36 -6377274#2.56 -6377274#2.83 -6377274#1 -6377274#1.17 -6377274#1.27 -6377274#0 -6377274#0.5 698805191#0 698805191#0.5 698805191#1 698805191#2 698805190 698805190.31 -517583963#3 -517583963#3.30 -517583963#2 -517583963#2.22 -517583963#1 -517583963#1.13 -517583963#1.28 -517583963#1.48 -517583963#0 -517583963#0.2 -517583963#0.16 -517583963#0.29 24054271 24054271.10 24054271.15 24054271.19 -698994085#1 -7991097#3 -7991097#2 -7991097#2.2 -7991097#2.17 -7991097#1 -7991097#0 -7991097#0.34 -23089172#13 -23089172#13.7 -23089172#12 -23089172#11 -23089172#10 -23089172#10.58 -227756442#0 -227756442#0.6 184891171 184891171.8 184891171.14 -184891177 -184891166 -22273567#2 -22273567#2.26 -6365504#8 -6365504#8.5 -6365504#7 -6365504#6 -6365504#6.53 -6400775#27 -6400775#27.6 -6400775#26 -6400775#26.2 -6400775#26.21 -6400775#25 -6400775#25.7 -6400775#25.85 -6400775#25.87 -6400775#24 -6400775#24.7 -6400775#24.73 -6400775#23 -6400775#22 -6400775#21 -6400775#21.9 -6400775#21.26 -6400775#21.31 -6400775#21.41 -6400775#20 -6400775#20.16 430285892 430285892.5 430285892.7 430285892.18 430285892.32 430285892.49 430285892.74 430285892.89 -430174922#3 -430174922#3.25 -430174922#3.108 -430174922#2 6329145#0 6329145#1 6329145#1.0 6329145#1.10 6329145#1.33 6329145#1.46 6329145#1.58 6329145#1.67 6329145#2 -6400775#16 -6400775#15 -6400775#15.27 -6400775#15.60 -6400775#15.68 -6400775#15.72 -6400775#15.75 -6400775#14 -6400775#13 -6400775#13.4 -6400775#12 -6400775#11 -6400775#10 -6400775#10.91 -6400775#10.107 -6400775#9 -6400775#9.3 -6400775#8 -6400775#8.2 -6400775#7 -6400775#7.19 -6400775#7.34 -6400775#7.49 -6400775#7.64 -6400775#7.76 -6400775#6 -6400775#6.34 -6400775#5 -6400775#5.24 -6400775#5.53 -6400775#5.72 -6400775#5.79 -6400775#5.83 -6400775#5.99 -6400775#4 -6400775#3 -6400775#3.15 -6400775#3.35 -6400775#3.44 -6400775#3.53 -6400775#3.63 -6400775#3.76 -6400775#3.90 -6400775#3.101 -6400775#3.112 -6400775#3.121 -6400775#2 -6400775#2.9 -6400775#2.16 -6400775#2.23 -6400775#2.29 -6400775#1 -6400775#1.10 -6400775#1.28 -6400775#1.38 -6400775#1.49 -6400775#1.59 -6400775#0 -6400775#0.3 -6400775#0.8 24221419#0 24221419#0.12 24221419#0.22 24221419#0.35 24221419#0.47 24221419#1 24221419#1.10 24221419#2 24221419#2.4 24221419#2.15 24221419#2.26 24221419#2.38 24221419#2.49 24221419#3 24221419#4 24221419#4.8 24221419#4.15 24221419#4.24 24221419#4.32 24221419#4.41 24221419#4.49 24221419#4.57 24221419#4.69 24221419#4.82 24221419#4.94 24221419#4.100 24221419#4.109 24221419#4.119 24221419#4.127 24221419#5 24221419#5.9 24221419#5.16 24221419#5.22 24221419#5.29 -190579762#18 -190579762#18.4 -190579762#18.5 -190579762#18.14 -190579762#18.28 -190579762#18.50 -190579762#18.74 -190579762#17 -190579762#17.47 6341488#16 6341488#16.13 6341488#16.20 6341488#16.48 6341488#16.58 6341488#16.72 6341488#16.96 6341488#16.142 6341488#16.158 6341488#16.170 6341488#16.183 6341488#16.197 -6336093#4 -6336093#4.17 -6336093#4.38 -6336093#4.53 -6336093#4.79 -6336093#4.90 -6336093#3 -6336093#3.13 -6336093#3.25 -6336093#3.39 -6336093#3.120 -6336093#3.127 -6336093#3.135 -6336093#2 -6336093#1 -6339085#8 -6339085#8.12 -6339085#8.19 -6339085#8.28 -6339085#8.38 -6339085#8.98 -6339085#8.116 -6339085#7 -6339085#7.29 -6339085#7.47 -6339085#7.68 -6339085#7.87 -6339085#7.110 -6339085#6 -6339085#5 -6339085#5.13 -6339085#5.24 -6339085#5.39 6338567#11 6338567#12 -190579811#1 -190579811#1.12 -190579811#1.20 -190579811#1.36 -190579811#1.50 -190579811#1.69 -190579811#1.82 -190579811#1.101 -190579811#1.120 -190579811#1.121 -11043363#4 -11043363#4.9 -11043363#4.16 -11043363#4.34 -11043363#4.41 -11043363#3 -11043363#3.7 -11043363#2 -11043363#1 -11043363#0 7857575#0 7857575#0.10 7857575#0.24 7857575#0.39 7857575#0.57 7857575#0.75 7857575#0.88 7857575#0.126 7857575#0.144 7857575#0.146 7857575#0.162 7857575#0.184 7857575#0.212 7857575#0.218 7857575#0.224 7857575#0.229 7857575#0.241 7857575#0.275 7857575#0.303 7857575#0.315 7857575#0.324 7857575#0.326 7857575#0.339 7857575#0.350 7857575#0.357 7857575#0.360 7857575#0.410 7857575#1 7857575#1.42 7857575#1.66 7857575#1.85"/>
</vehicle>
</routes>
