<?xml version="1.0" encoding="UTF-8"?>
<routes xmlns:xsi="http: // www.w3.org/2001/XMLSchema-instance" xsi:noNamespaceSchemaLocation="http: // sumo.dlr.de/xsd/routes_file.xsd">
<vType id="veh_passenger" vClass="passenger"/>

<vehicle id = "veh0" type= "veh_passenger" depart="0" >
<route edges =" -45342801#4 -45342801#3 -45342801#2 -45342801#1 -45342801#0 45342798#2 45342798#3 45342798#4 45342798#5 45342813#0 45342813#1 45342813#2 -45342814#1 44740902#11 44740902#12 44740902#13 44740902#14 44740902#14.81 44740902#14.94 -874839172#0 -44740943 -313316091#20 951438760#0 951438760#1 -44740929#4 -951438759 44740922#2 44740922#2.25 44740953#0 44740953#2 44740953#3 44740953#4 44740953#5 44740953#6 44740953#7 44740949#2 -44740919#1 -44740919#0 44740920#8 -313316091#0 -313316091#0.27 -313316091#0.72 -313316091#0.80 -971495601#9 -971495601#9.28 -971495601#8 -971495601#7 -971495601#6 -971495601#5 -971495601#3 -971495601#1 -971495601#0 -313316086 -44739144#26 -44739144#24 -44739144#22 -44739144#21 -44739144#20 -44739144#19 -44739144#19.14 -44739144#18 -877398366#21 -877398366#20 -877398366#19 -877398366#18 -877398366#17 -877398366#17.7 -877398366#16 -877398366#15 -877398366#15.29 -877398366#14 -877398366#14.72 -877398366#13 -671191680#14 -671191680#13 -671191680#11 -671191680#9 -671191680#8 -671191680#6 -896786326#1 -896786326#0 -896786328#0 -896786328#0.177 -951951638#10 -951951638#10.18 -951951638#9 -951951638#8 -951951638#7 -951951638#5 -951951638#4 -951951638#3 -951951638#2 -951946794#1 -951946794#0 951946792#1 896786337#8 896786337#8.8 -951887683 -951887684 -951887682#6 -951887682#5 -951887682#4 -951887682#3 951887692 -951887691#0 -951887682#0 -951887700#14 -951961240#3 -951961240#1 -951961245 951891772#0 -951891773 -951891771#0"/>
</vehicle>
<vehicle id = "veh1" type= "veh_passenger" depart="0" >
<route edges =" 45342801#5 45342801#5.32 902433317#3 902433317#4 902433317#6 902433317#7 902433317#8 902433317#8.29 951368593#1 972507120#2 45342812#0 45342812#1 45342811#2 45342811#2.66 45344273#23 45344273#23.11 45344273#24 -897252873#2 -897252873#1 -897252873#1.42 -897252873#0 -897252873#0.25 897252876#4 45344320#2 45344320#3 -45344331#4 45344327#1 903341090 -45344335#4 -950235690#1 -950235690#0 -950235690#0.14 700254525#11 700254524#0 700254523 -700254525#0 45344272#4 950233988#0 45344283#9 45344283#10 45344283#10.15 45344283#10.46 45344283#10.69 45344283#10.88 45344283#10.150 45344283#10.196 45344283#10.260 45344283#10.377 45344283#10.468 45344283#10.514 670655885 670655885.12 896892975 971495602#12 971495602#12.26 971495602#12.77 951442813 951442812#0 -896786335#50 -896786335#49 -896786335#48 -896786335#48.15 -896786335#47 -896786335#46 -896786335#44 -896786335#44.9 -896786335#44.71 -896786335#43 -896786335#42 -896786335#42.22 -896786335#41 -896786335#40 -896786335#39 -896786335#39.27 -896786335#37 -896786335#36 -896786335#34 -896786335#33 -896786335#32 -896786335#32.17 -896786335#31 -896786335#31.22 -896786335#30 -896786335#29 -896786335#29.17 -896786335#28 -896786335#27 -896786335#27.19 -896786335#26 -951995494#1 -951995491#2 -951995491#1 -951995491#0 -896786266#12 909024250#0 909024250#1 909024250#2 909024250#4 909024250#5 909024250#6 909024239#0 909024239#1 909024239#1.17 909024239#2 909024239#2.40 -951983585 -951975994 -896786324#1 -896786324#0 -896786324#0.19 -896786324#0.132 -896786324#0.177 951951639#0 951946803#0 951946795#1 951946795#2 951946795#3 951946795#4 951946795#6 951946795#7 951946795#9 951946795#10 951946795#11 951946795#11.34 951946795#11.40 951946795#11.45 896786337#10 896786337#10.21 -951887700#20 -951887700#19 -671756019#4 -951961235 951961234#1 -951878265#2 -951878265#1 -951878265#0 951878264#2 -951878263#3 -951878266#4 -951878266#4.37 -951878266#2 -951878266#1 -951878266#1.39 -951878266#1.47"/>
</vehicle>
<vehicle id = "veh2" type= "veh_passenger" depart="0" >
<route edges =" 951370989 951370989.40 951370989.47 951370989.53 951370989.56 951370989.62 951370989.64 951370989.67 -902433320#1 -902433320#0 902433321#2 45342799#21 45342809#0 45342809#1 45342809#2 45342809#3 45342809#4 45342809#5 45342809#6 45342809#7 45342809#8 44740885#10 -45342826#1 -45342826#0 45342825#1 45342825#2 45342828#0 45342828#1 45342828#1.100 -45344273#6 -45344273#6.40 -45344273#6.59 -951384598#3 -951384598#2 -951404491 -951404491.16 -951404491.28 -951404491.40 -951404491.51 -951384599#0 700249213#9 700249213#10 700249213#11 45342808#10 45342808#11 45342808#11.24 45342808#12 -897252871 -897252870 -45344310#2 -45344310#1 -45344310#0 -45344310#0.10 -45344310#0.18 -45344310#0.30 -45344310#0.41 -45344310#0.52 971495602#8 971495602#8.24 971495602#8.86 -313316104#6 -45378650#5 -45378650#5.11 -45378650#4 45378645#0 45378645#0.44 -908846596#3 -908846596#2 45378650#1 -908846593 -908846593.73 908560901#8 908560901#8.23 908560901#8.56 -313316104#0 -313316082 -45378649#12 896786296#0 896786296#1 896786296#1.36 -896786262#6 -896786262#6.15 -896786262#5 -896786262#4 -896786262#4.31 -896786262#3 -896786262#3.9 -896786262#1 -896786262#0 -896786262#0.33 -896786262#0.115 -896786260#1 -896786260#1.5 -896786260#0 -896786260#0.52 896786257#4 909024248 909024248.50 -45378665#3 -45378665#3.29 -45378665#3.50 -45378665#2 -45378665#2.36 -45378665#1 -45378665#0 -45378665#0.39 -45378665#0.75 -896786335#14 -896786335#14.27 -896786335#13 -896786335#12 -896786335#12.15 -896786335#11 -896786335#10 -896786335#10.38 -951976010#1 -951976011#0 896786321#2 -896786320#3 -896786320#3.5 -896786320#1 -896786320#0 -896786316#3 -896786316#2 -896786316#1 -896786316#1.33 -896786314 -951930663#1 -951930663#0 -877395784#11 -877395784#11.58 951946825#0 951946825#1 -951946816#4 951946844 877399011#1 951946810#2 -896786337#14 -896786337#14.40 -896786337#14.111 -952365020 -952365021 -951878231#2 -951951643#6 -951951643#5 -951951643#4 -951951643#3 -951951643#2 876509484#2 -951951642#1 -951951642#0 -951878263#5 -951878269#15 -951891772#2 -951891774 951891771#2 951878270#2 877401978#0 877401978#1 951878266#0"/>
</vehicle>
<vehicle id = "veh3" type= "veh_passenger" depart="3605" >
<route edges =" -45342801#4 -45342801#3 903341082#0 903341082#0.10 -672813677#4 -672813677#4.16 903341083#0 -951368605#2 -951368605#1 -951368605#0 -45342811#0 -45342801#0 45342798#2 -45342809#3 -45342834#2 -45342834#1 -45342834#0 44740902#8 44740902#9 44740902#9.47 44740902#10 44740902#10.9 44740902#11 44740885#7 -45342841 -45342802#1 44740902#13 44740957#4 -671399051#1 -671399051#0 44740942#2 44740942#2.58 -874839172#0 -44740943 -313316091#20 951438760#0 951438760#1 -44740929#4 672215965#0 672215965#0.11 672215965#1 -44740922#0 -313316091#16 45378639#0 45378639#0.48 -45378689#5 -45378689#4 -45378690#1 -45378690#0 -45378690#0.32 -313316091#11 951438765 44740948#1 -44740940#1 -44740940#0 -44740953#2 -44740923#3 -44740923#2 44740926#1 44740926#2 -951358804 44740955#2 44740924#1 -44740927#15 -44740925#3 44740955#0 951358803 44740926#4 44740926#5 -44739167#10 -44740930#7 -44740930#6 -44740930#5 44739156#14 44739156#15 44740985#0 44740985#1 44740983#1 44740927#9 44740927#10 951358806#0 951358805#0 -951358802 44740927#12 44740927#13 44739167#12 44739167#13 -44740945#1 44740946#0 44740946#1 45378682#0 45378682#0.48 45378682#1 45378689#1 45378688#0 45378655#0 45378655#1 45378683#2 -45378653#6 -45378653#5 951358812 45378655#6 951358810#1 951358810#1.4 45378656#1 -45378655#4 -45378685#2 671178935 -45378684#0 -45378684#0.58 -45378684#0.107 -313316091#5 -313316091#5.44 -313316091#4 -313316091#4.67 -45378657#4 -45378657#3 -45378657#3.57 -45378657#3.61 -45378657#3.65 -45378657#3.69 -45378657#3.73 -45378657#3.78 -45378657#2 -45378657#1 -44740931#2 -44740931#2.59 -313316091#1 -313316091#1.32 -313316091#0 -313316091#0.27 -313316091#0.72 -313316091#0.80 -971495601#9 -971495601#9.28 44740934#0 44740934#1 44740934#1.32 44740934#2 44740934#3 44740934#3.12 44740934#4 909019790#0 909019790#0.39 909019790#1 -909019791#0 45340579#20 45340579#20.80 955813297#0 -909019772#1 -909019772#1.10 -909019772#1.26 -909019772#1.29 -909019772#1.34 44740916#2 44740916#2.8 44740916#2.32 -909019775 -909019775.30 -909019776#2 -909019776#2.33 -909019776#2.36 -909019776#2.39 -909019776#2.41 -909019776#2.74 44740916#4 44740916#4.18 -909019791#2 -909019788 -909019789#1 44740916#7 44740916#8 44740916#9 44740916#9.64 44740916#11 -971495601#6 -971495601#5 -45378660#1 -45378660#1.21 -45378660#1.52 -45378660#1.88 -45378660#1.126 -908560900#3 -908560900#2 -908560900#1 908560901#22 908560901#22.77 908560901#22.89 -971495601#0 -313316086 -44739144#26 -44739144#24 903953326#0 903953326#1 -903953325#3 -903953325#2 -903953325#2.18 -909778547#2 -951361609 903953324#1 903953324#1.22 -44739144#18 671752228#0 -671960103#1 -671960103#0 -671960104#0 -909024265#3 -909024265#2 -909024265#2.29 -909024265#1 -909024265#0 -896786289#0 -896786289#0.7 -904371479#3 -904371474#3 -904371474#2 -904371474#1 -904371474#0 -904371474#0.12 904286386#3 904286386#3.9 904286386#3.31 904371470#1 904286384#1 904286384#1.16 904286384#2 904286384#2.14 877396860#15 877396860#16 909024290 909024290.75 -909024293#0 909024294#1 -877398366#17 -877398366#17.7 896786294#0 896786294#0.33 896786294#2 896786294#2.7 951992347 896786277#3 -909024256#0 -909024256#0.28 896786279#5 -896786278#0 -896786278#0.50 -896786277#0 -877398366#15 -877398366#15.29 -877398366#14 -877398366#14.72 -904286382#4 -904286382#4.34 -904286376 -904286377#0 -904286378#0 -904286380#2 -877396860#12 -904286382#1 -904286383#4 -904286379 -904286381#2 -904286381#0 -904371463#1 -904371463#1.79 -904371463#0 -904371465#0 -877396860#4 -896786328#3 -896786328#3.70 904371467#0 -904371465#2 -904371466 -904371466.129 -671191680#9 -671191680#8 -671191680#6 -896786326#1 -896786326#0 -896786328#0 -896786328#0.177 -951951638#10 -951951638#10.18 -951951638#9 951973426#2 -952002224#6 951973432#0 -951951638#7 951946800#0 951951639#7 -951973430#1 -951973430#0 -952002224#4 -952002224#4.27 951946798#0 -951951638#3 -951951638#2 -951951638#1 -952000397 951951639#15 896786337#6 896786337#7 896786337#8 896786337#8.8 -951887683 -951887684 -951887682#6 -951887682#5 -951887682#4 -951887682#3 -951887682#2 -951887682#2.37 -951887682#1 -951887682#1.2 -951887682#1.5 -951887682#0 -951887700#14 -951961240#3 -951961240#1 -951961245 951891772#0 -951891773 -951891771#0"/>
</vehicle>
<vehicle id = "veh4" type= "veh_passenger" depart="3605" >
<route edges =" 45342801#5 45342801#5.32 902433317#3 902433317#4 902433317#6 -951368597 45342799#26 951368596 902433317#8 902433317#8.29 902433317#9 951368594#0 951368594#1 951368594#2 45342812#0 45342812#1 45342811#2 45342811#2.66 45344273#23 45344273#23.11 -951379890#1 -951379890#1.37 -951379890#1.47 -951379889 -951379889.17 -951379889.23 -951379889.29 -951379889.36 -951379889.42 -897252873#1 -897252873#1.42 -897252873#0 -897252873#0.25 897252876#4 897252876#5 897252876#5.34 897252876#6 -45344321#1 951404485 -45344322#0 -45344273#18 -45344273#18.17 -45344273#17 -45344273#17.20 -45344273#17.31 -951404487 -951404487.23 -951404487.30 -951404487.34 -951404487.41 -951404487.54 -951404487.65 -951404487.81 -951404487.106 -951404487.117 -951404487.125 -951404487.130 -951404487.140 -951404487.150 -951404487.157 897252876#8 902433295#2 902433295#3 902433295#4 902433295#4.36 902433295#4.49 902433295#5 -45344326#0 -45344326#0.20 -45344326#0.39 45344330#1 -45344333#0 45344329#5 45344329#6 45344327#0 45344331#4 45344320#4 45344320#5 45344320#5.26 950455054 -45344336#8 -45344336#8.20 -45344336#8.27 -45344336#8.33 -45344335#8 -45344335#7 -950235691#2 -950235691#2.50 -950235691#1 -950235691#0 -950235691#0.4 950235690#1 -45344335#3 -45344335#2 -699875131#1 -699875131#0 -897172091#8 -897172091#6 -897172091#5 -897172091#4 -897172091#3 -897172091#1 -699875130#3 -699875130#3.50 45344297#0 45344297#0.22 -950400195#2 -950400195#2.10 950400194#0 -950400193#1 950400192#0 -950235689#0 700254525#8 700254525#9 700254525#11 700254525#12 700254525#12.12 -45344336#6 -45344336#6.35 -45344336#5 950235700#0 950235694#0 -950235695#2 -950235695#1 -950235695#0 950235699#1 -950732876 -950235697#0 -950235692#2 -950455053 -950235703#0 -950235703#0.13 -950235703#0.32 -950235703#0.55 -950235703#0.71 -950235703#0.86 -950235703#0.97 -950235703#0.108 950235699#5 950238177#2 950238177#2.39 950238177#2.59 45344273#34 45344273#34.26 45344278#0 45344278#0.58 45344278#0.62 45344278#0.65 45344278#1 45344278#2 45344278#2.33 45344278#3 -950238182#3 -950238182#2 -950238182#2.10 950780323 950780323.8 950780323.15 950780323.22 950780323.29 -950238184#2 -950238184#2.9 -950238184#2.19 -950238184#2.27 -950780324#0 -950780324#0.30 950238181#1 -950238182#0 -950238178#1 -950238180#5 -950238180#5.16 -950238180#4 -950238180#4.38 -950238180#3 -950238180#3.35 -950238180#3.57 -950238180#3.61 -950238180#3.64 -950238180#2 950238184#4 45344271#15 45344271#17 45344276#0 -950759346#1 -950759346#0 -950806855#3 -45344277#1 -45344277#0 45344276#3 45344276#4 45344276#6 -950235727#7 -950235727#6 -950235727#5 950806855#0 950806855#0.39 950806855#0.41 950806855#0.43 950806855#0.45 950806855#0.47 950806855#1 950806855#1.3 950806855#1.8 950235725#2 -950806857 45344277#3 950806851 950806851.32 950806851.35 950806851.38 950806851.40 950806851.42 950806852#1 -950235725#4 950806856 950806856.10 950806856.22 950806856.28 950806856.35 -950235727#3 -950235727#2 -950235727#2.16 -950806853 -950806858 45344277#7 -950235723#1 -950235723#0 -45344271#12 950806850#0 950806850#1 45344277#9 897252880#6 897252880#6.90 -45344271#10 -950641816#10 -950641816#9 -950641816#8 950235729#1 950235729#2 -950235733#2 -950235733#2.11 -950235733#2.21 -950235733#2.34 -950235733#2.46 950641812#3 950641809#0 -950641810 -950641810.14 -950641810.18 -950641810.22 -950641810.27 950235732#1 950235732#2 950641808 950641808.26 950641808.28 950641808.30 950641808.33 950641811#1 950641811#1.3 950641811#1.11 950641811#1.19 -950641812#0 -45344285#2 -45344285#1 950235732#5 950235732#5.16 951077734#0 -950241846#1 -950241846#1.22 951043903 950241823#3 45344284#12 45344284#12.58 950872160#0 950872160#1 950872160#1.50 950872160#1.69 950872160#2 950872160#2.4 950872160#3 950872160#4 950872160#4.25 950872160#5 -950241834#3 950929127#7 -950241836 -950241837#0 -950241834#1 950241821#2 950241821#3 950241821#4 -950241828#0 -950929127#3 -950929127#3.15 950241831#0 -950241818#6 -950241818#6.21 951014856 951014856.41 951014856.45 951014856.48 951014856.71 951014856.76 951014856.80 951014856.85 -950241818#4 -950241825#0 -950929127#1 -950929127#0 45344271#5 45344271#6 45344271#6.35 45344271#7 45344271#7.34 -950641813#1 -950641813#1.14 -950641813#1.27 -950641813#1.43 -950641813#1.59 -950641815#1 -950641815#1.35 -950641815#1.42 -950641815#1.47 -950641814 -950238188#3 -950241847#7 -950241847#7.19 950553571 950553571.38 950553571.41 950553571.44 950553571.54 950553571.56 950553571.58 950553571.66 950553571.68 950553571.71 -950241847#4 -950238186#0 -950238188#0 45344284#8 -950241847#2 -902433322#1 -902433322#1.57 950241861#0 950241857#0 950241863 950241863.49 950241863.52 950241863.55 950241857#2 -950241848#0 -45344282#5 -45344282#5.52 -45344282#5.87 -45344281#2 950241866#9 -45344284#5 -45344284#4 950238192#5 950238192#5.42 950553577#0 950553577#0.25 -950553576 -45344283#2 -45344283#1 -45344283#1.3 -45344283#0 -45344282#0 -45344272#0 -45344273#40 -950235700#3 -950235700#2 950235697#4 950235697#4.10 950235697#4.13 950235697#4.16 950235697#4.19 950235697#4.22 45344272#2 45344272#2.46 45344272#3 45344272#3.108 45344272#3.157 45344272#3.171 45344272#4 950233988#0 950233988#1 950233988#1.76 950233988#2 950233988#2.43 950233988#2.55 -700278833#3 -700278833#2 -700278833#2.24 950241222#0 950392123#0 950392123#0.21 950392123#0.29 950392123#0.39 -950390889#3 -950390889#3.20 -950390889#3.34 -950390889#3.45 950392121#0 950392121#0.13 950392121#0.18 950392121#0.24 950392121#0.35 950392121#0.44 950392121#0.54 950392118 950392118.21 950392118.25 950392118.27 950392118.39 950392118.42 950392118.45 950392118.47 -950392120#0 -950392120#0.3 -950392120#0.25 -950392120#0.41 -950392120#0.51 -950392120#0.60 -950392120#0.69 -950390889#0 -950390889#0.4 -950390889#0.19 -950390893#1 -950390893#1.23 -950390893#1.49 -950390893#1.53 -950390893#1.57 -950390893#1.63 -950241225#1 -950241225#0 -950241225#0.29 -950241225#0.59 -45344280#9 -45344280#9.5 -950390893#4 -950390893#4.28 -950390893#4.45 -950390893#4.63 -950241224#1 -950241224#1.11 -950241224#1.23 -950241224#1.37 -950241224#1.56 -950241224#1.81 -950241224#1.86 -950390890 -950390890.10 -950390890.15 -950390890.19 -950390890.22 -45344280#4 -950241222#4 -950241222#3 -951132943 -951132943.7 950241220#2 950241220#3 950241220#4 897252877#0 897252877#0.74 950396025 950241209#4 950241209#4.21 950241209#5 950241209#5.13 -45344280#0 -45344280#0.24 -45344280#0.53 -897252879#12 -897252879#12.59 -897252879#11 -897252879#11.67 -897252879#11.92 -897252879#10 -897252879#9 -950396019 950241208#2 950241208#2.29 950241207#2 -897252879#6 -897252879#6.15 -897252879#5 -897252879#4 -897252879#4.26 -897252879#3 950241203 950241203.46 950241203.47 950241203.49 950241203.51 950241203.66 950241203.68 950241203.70 950241203.73 -897252879#1 -897252879#1.25 -897252879#0 -897172107 -897172108#14 897172106#11 897172106#11.24 897172106#12 897172106#12.16 897172106#12.27 897172106#13 897172106#13.38 897172106#13.119 897172106#13.183 897172106#15 897172106#15.16 897172106#15.44 897172106#15.79 897615343#0 -950239883#3 950239884#0 950239884#1 897615335#7 897615335#7.26 -897615337 -897615337.16 -897615337.65 -897615338#3 -897615338#2 -897615342#2 -897615342#1 -897615342#1.8 -897615342#1.23 -950241210 -950241210.27 897172106#17 897172106#17.12 897172106#18 897172106#19 897172106#19.21 897172106#20 897172106#20.28 -45343180#8 -45343180#8.53 -45343180#7 -45343180#7.23 -45343180#6 -45343180#5 -45343180#5.49 -897615339#3 -897615339#2 -897615339#1 -897615339#1.22 -897615340#1 -950287964#2 -950287963 -950287963.22 -950287963.43 897615341#2 950241211#0 950241211#0.12 950241211#0.27 -950241212#1 -950241212#1.22 -950241212#1.44 -950241212#1.66 -950241214#3 -950241214#3.68 -950241214#3.76 -950241214#3.85 -950241214#3.94 -950241214#2 -950241214#1 -950241214#1.33 -950241214#0 -950239861#3 671176477#4 671176477#4.46 671176477#5 671176477#6 671176477#6.45 671176477#7 671176477#7.19 671176477#8 671176477#8.18 671176477#8.36 671176477#8.64 950239881#0 -950278758#1 950278757 950278756#0 950278754#0 -950278752 950278755#1 950278755#2 -950232596#9 -950232596#9.10 -950232594#4 -950232594#4.41 -950232594#3 -950232594#3.13 -950232594#2 -950232594#2.15 950278751#0 950278751#1 -950232595#0 -671176475#5 -671176475#3 -671176475#3.2 -671176475#3.34 -671176475#3.40 950285698#0 950285698#0.6 950285698#0.11 950285698#0.18 950285698#0.29 950285698#1 950285698#1.5 950285698#1.9 950285698#1.14 950285701#1 -950239856#6 -950239856#6.12 -950282464#1 -950282464#1.8 -950282464#1.13 -950282464#1.19 -950282464#1.24 -950282464#1.43 -950282464#1.48 950239858 950239858.25 950239858.29 950239858.33 950239858.36 -950239861#1 -950239861#0 -950239861#0.14 -950239861#0.26 -950239861#0.36 -950239861#0.44 -950276710#0 -950276710#0.10 -950276710#0.32 950239862#3 950239862#3.28 -950239863#1 -950239863#0 -950239863#0.36 -671176477#2 -671176477#2.29 -671176477#1 -671176478#0 -671176478#0.38 -671176478#0.42 -671176478#0.45 -671176478#0.50 -671176478#0.54 -897172102 -897172103 -671176472 897252879#17 897252879#18 897252879#18.162 897252879#19 897252879#19.29 897252879#20 897252879#21 897252879#21.85 897252879#22 897252879#23 896892972 896892973 896892973.27 896892973.31 -896786335#50 -896786335#49 -896786247#9 -896786247#9.8 -896786247#9.17 -896786247#9.75 -896786247#9.157 -896786247#8 -896786247#7 -896786247#7.2 -908869249#2 -908869249#2.8 -908869249#2.14 -908869249#2.28 -908869249#1 -908869249#0 -908869249#0.10 -896892977#2 908869250#5 -908869248#1 -908869248#1.4 -908869248#1.6 -908869248#1.9 -908869248#1.11 -908869248#1.19 -951358827#2 -951358826 -951358826.10 -951358826.13 -951358826.16 -951358826.19 -951358826.36 -951358826.40 -951358826.44 -951358826.49 -896786335#42 -896786335#42.22 896892983#0 896892983#0.10 896892983#1 896892983#1.19 896892983#2 896892983#2.46 896892983#3 896892983#3.35 896892982#0 896892982#0.29 896892982#1 896892982#2 896786335#40 908869237 908869237.8 908869237.20 908869237.48 -908869250#3 -908869250#2 -908869250#2.29 -908869250#2.76 -908869250#2.143 908869244#0 -908869233 -908869234#0 -908869234#0.11 -908869250#0 -908869250#0.11 -908869250#0.41 -45378649#10 -45378649#10.20 -45378649#9 -45378649#9.7 896786248#0 896786248#0.6 896786248#0.16 896786248#0.93 896786248#0.127 896786248#0.165 896786248#0.179 896786248#0.211 896786248#1 896786248#1.30 896786248#1.43 -951349917#1 -951349917#1.14 -951349917#1.29 -951349917#1.41 -951349917#1.59 -951349918 876614662#9 876614662#9.52 -951354773#3 -951354773#3.20 -951354773#3.23 -951354773#3.26 -951354773#3.28 -951354773#3.30 -951354773#3.32 -951354773#3.34 -951354773#3.38 -951354773#3.40 -951354773#3.43 -951354773#3.45 -951354773#2 -951354773#2.2 -951354773#2.27 -951354773#2.50 -951354773#2.74 -951354773#2.80 -951355289#1 -951355289#0 896893028#3 896893028#3.12 896893028#4 896893028#4.8 896893028#5 -896786335#29 -896786335#29.17 -896893017#1 -896893018#1 -896893018#1.27 -896893018#0 -877388728#13 -877388728#13.55 896893004#0 896893004#2 896893004#3 896893004#3.24 896893004#4 896893004#5 896786335#24 -951995494#1 -951995494#0 951354763#4 -951995493#0 -951995491#1 -951995491#0 -896786266#12 909024250#0 909024250#1 -909024243#1 -909024243#1.11 -909024243#1.69 -909024243#1.72 -909024243#1.74 -909024243#1.78 951995495 -896786335#18 -896786335#17 -896786335#17.2 909024245 909024245.31 909024245.51 909024245.75 909024250#5 909024250#6 909024239#0 909024239#1 909024239#1.17 909024239#2 909024239#2.40 877398366#3 951995475#4 904371460#5 -877396860#3 -951975994 -896786324#1 -896786324#0 -896786324#0.19 -896786324#0.132 -896786324#0.177 -877395784#19 -951946816#15 951946795#0 951946795#0.4 951946795#0.7 951946795#0.9 951946795#1 -951946802 951951639#3 951951639#4 951946801 951946795#3 951946795#4 -951946799 951951639#9 951951639#10 951951639#11 951946796#0 951946804 951946804.28 951946804.31 951946804.34 951946804.37 951946795#11 951946795#11.34 951946795#11.40 951946795#11.45 896786337#10 896786337#10.21 -951887700#20 671756019#0 -951961251#1 951961247#0 951961248#0 951961248#1 -876509484#6 -876509484#6.3 -876509484#6.8 -876509484#6.12 -876509484#6.15 -876509484#5 -951878267#1 -951878267#0 -951878267#0.26 -951878267#0.29 -951878267#0.32 -951878267#0.34 951878265#0 -951878266#5 -951878266#5.22 -951878266#5.29 -951878266#5.37 -951878266#4 -951878266#4.37 -951878266#2 -951878266#1 -951878266#1.39 -951878266#1.47"/>
</vehicle>
<vehicle id = "veh5" type= "veh_passenger" depart="3605" >
<route edges =" 951370989 951370989.40 951370989.47 951370989.53 951370989.56 951370989.62 951370989.64 951370989.67 -902433320#1 -902433320#0 902433321#2 -45342799#20 -45342797#4 -45342797#3 -45342797#2 -951370983 951368602#1 -951368601#0 951368603#1 -951368600#0 45342809#1 45342809#2 45342809#3 -45342798#2 -45342798#1 45342840#0 -45342810#2 -671416444#2 -671416444#1 671416442#0 671416442#1 671416440 671416443#2 -45342838#0 -45342810#0 45342809#5 -45342836#2 -951441769 -951370985#0 45342818#3 -45342814#4 -45342803#5 -45342803#4 -45342803#3 -45342803#2 -45342803#1 44740957#0 44740957#1 45342843#0 45342843#1 45342843#2 45342843#3 45342804#1 45342804#2 45342804#3 45342820#1 -45342822#1 -45342822#0 -45342831#2 951421967 -951417480#0 45342805#4 45342809#14 45342824#0 45342824#1 45342824#2 45342824#3 45342823#2 45342828#1 45342828#1.100 -951384596#1 -951384596#1.24 -951384596#1.31 -951384596#1.36 -951384596#1.46 -951384596#1.54 -951384596#1.60 -951384596#1.72 -951384596#1.107 -951417467 -951417467.14 -951417467.15 -951417467.17 -951417467.18 -951417467.21 -951417467.23 -951417467.24 -951417467.25 -951404491 -951404491.16 -951404491.28 -951404491.40 -951404491.51 -951384599#0 700249213#9 700249212#0 700249212#1 700249212#3 45342808#9 45342808#10 45342808#11 45342808#11.24 45342808#12 -897252871 -897252870 -45344310#2 -45344310#1 -45344310#0 -45344310#0.10 -45344310#0.18 -45344310#0.30 -45344310#0.41 -45344310#0.52 971495602#8 971495602#8.24 971495602#8.86 -313316104#6 -45378650#5 -45378650#5.11 -45378650#4 -45378650#3 -45378650#3.29 -45378650#2 -45378650#2.42 -45378650#2.62 -45378650#1 -908846596#1 -908846596#0 -908846596#0.31 908560901#7 908560901#8 908560901#8.23 908560901#8.56 -313316104#0 -313316082 -45378649#12 896786296#0 896786296#1 896786296#1.36 896786296#2 896786296#2.35 896786296#3 896786296#4 -896786259#2 -896786259#2.6 -896786259#2.30 -896786259#2.64 896786258#0 896786255#0 951355294#0 951355294#0.41 951355294#1 951355294#1.19 951355294#1.22 951355294#1.23 951355294#1.24 951355294#1.25 951355294#1.27 951355294#1.28 951355294#1.31 951355294#1.41 951355294#1.42 951355294#1.43 951355294#1.44 951355294#1.45 951355294#1.47 896786258#4 -896786261 896786263#1 951354764#1 -896786262#0 -896786262#0.33 -896786262#0.115 -896786260#1 -896786260#1.5 896786266#6 896786266#6.16 896786266#7 -909024252#1 -909024253#2 -909024253#2.24 -896786293#7 -896786293#6 -896786293#5 -896786293#5.20 -896786257#6 -896786257#6.3 -896786257#6.12 -896786257#6.48 -896786257#5 909024248 909024248.50 909024287#0 909024287#0.8 909024287#0.15 909024287#0.65 951995477 951995477.33 951995477.41 45378665#7 45378665#7.25 45378665#7.48 909024255 909024255.12 909024255.40 909024255.70 -896786266#3 -896786266#1 -896786266#1.7 -896786266#1.22 -896786266#1.30 -896786266#0 -896786266#0.9 -896786266#0.23 -896786266#0.37 -896786266#0.58 -896786266#0.78 -896786266#0.96 -45378665#11 -45378665#11.12 -45378665#11.33 -45378665#10 -896786283#4 -896786283#4.15 -896786283#4.56 -896786283#3 -896786283#3.11 -896786283#2 -896786283#1 -896786283#1.4 -896786283#1.24 -896786283#0 -896786283#0.23 877396033#4 877396033#4.19 896786286#4 896786286#4.10 896786286#4.60 -909024289#3 -909024289#3.21 -909024289#2 -909024288#1 -909024288#0 -896786287#2 -896786292#3 -877398520#2 -877398520#2.20 -951995479#1 -896786287#0 -896786287#0.41 -896786286#0 -896786286#0.12 877398366#9 877398366#11 877398366#11.20 896786284#1 -877396860#9 -877396860#9.4 -877396860#8 -877396860#7 904371461 904371461.86 904371461.132 904371461.161 904371461.165 904371461.167 904371461.172 -904371458#0 -904371458#0.40 904371460#4 904371460#4.17 904371460#4.32 -951995475#4 -951995475#3 -951995475#2 896786292#0 896786292#0.10 896786293#0 896786293#2 896786293#2.8 896786293#2.28 896786293#2.36 896786293#2.45 896786293#2.48 896786293#2.52 -45378665#2 -45378665#2.36 -45378665#1 -909024250#6 -909024246 -909024246.27 -909024246.63 -909024246.70 -909024246.79 -896786335#15 -896786335#14 -896786335#14.27 -896786335#13 -951983587#9 -896786303#1 -896786303#1.61 -896786303#0 -896786311#12 -896786311#12.40 -896786311#11 -896786311#11.60 -896786304#9 -896786304#9.25 -951983586#1 951983588#0 951983589#0 -896786304#7 -896786304#7.31 -896786304#6 951983592#0 951983592#0.146 951983592#0.152 951983592#0.157 951983592#1 951983592#3 951983592#3.4 951983592#3.8 951983592#3.24 951983592#3.30 951983592#4 951983592#4.48 951983592#4.59 951983592#4.68 896786310#7 896786310#7.4 896786310#7.13 896786310#7.40 896786310#7.52 896786310#7.60 896786310#7.68 896786310#7.74 951983608#0 951983608#0.28 951983608#0.31 951983608#0.35 -951983611#3 -951983610 951983592#6 951983592#6.2 951983592#6.8 951983592#6.15 951983592#7 -951930617#9 951983611#0 -951983609#0 951983608#2 951930618#2 -951930617#6 -951930617#5 951930621 -896786309#18 -951935274#7 -951935274#6 -951935274#5 -951935274#5.28 -951935274#5.36 -951935274#5.46 -951935274#5.82 -951935274#5.91 -951935274#5.100 -951935274#4 -951935274#4.3 -951935274#4.24 -951935274#4.29 -951935274#4.35 -951935274#4.66 -951930627#1 -951930627#0 951988606#0 951988606#1 -951988605#0 -951988604#3 -951930625#1 -951930625#0 -951930625#0.6 -951930625#0.13 -951930625#0.21 -951930625#0.26 -951930625#0.32 -951930616#10 -951930616#10.3 -951930616#10.6 -951930616#10.9 -951930616#10.13 -951930616#10.15 -951930616#10.18 -951930616#10.26 -951930616#10.29 -951930616#10.31 -951930616#10.35 951930633#1 951930633#1.18 951930633#1.21 951930633#1.24 951930633#1.29 951930633#1.33 951930633#1.36 -896786309#26 -896786309#26.2 -896786309#26.7 -896786309#24 -896786309#24.6 -896786309#22 -896786309#22.8 -951930622 951930618#0 951930618#0.26 951930618#0.29 951930618#0.32 951930618#0.35 -951930619 877389028#1 877389028#1.12 877389028#1.31 -896786310#13 -951983598#2 -951983598#2.26 -951983598#2.31 -951983598#2.37 -951983598#2.50 -951983598#2.53 -951983598#2.56 -951983598#2.60 -951983598#2.63 -951983598#2.66 -951983617#1 -951983617#1.8 -951983617#1.10 -951983617#1.12 -951983617#1.15 -951983617#1.42 -951983617#1.46 -951983617#1.49 -951983617#1.52 -951983617#1.58 -951983617#1.61 -951983617#1.64 -951983617#1.81 -951983617#1.86 -951983617#1.92 -951983617#1.108 -951983617#1.112 -951983617#1.116 -951983617#1.163 -951983617#1.166 -951983617#1.169 -951983617#1.173 -877398739#0 -877398739#0.4 -877398739#0.7 -877398739#0.11 -877398739#0.19 -877398739#0.23 -877398739#0.27 -896786310#10 -896786310#10.4 -896786310#10.15 -896786310#10.32 -951983616#2 -951983616#1 -951983619 -951983619.37 -951983619.41 -951983619.43 -951983619.47 951983620#1 -951983587#5 -951983587#4 -951983587#4.5 -951983587#4.15 -951983587#4.17 -951983587#4.21 -951983587#4.25 -951983587#4.34 -951983587#3 -951983587#3.2 -951983587#2 877398739#2 877398739#2.30 -951983590 -896786311#9 -896786311#8 -896786311#7 -951930673#5 -951930674 -951930674.86 -951930674.89 -951930674.93 -951930674.97 951930673#2 951930673#2.89 -951930676 -951930676.40 -951930676.43 -951930676.45 -951930676.48 -951930671#1 -951930671#0 -951930671#0.25 -951930671#0.32 -951930671#0.42 -877396172#3 896786315#0 -896786316#3 896786317#0 951976005 896786315#4 896786319#4 896786319#5 896786319#5.19 896786316#0 896786316#1 896786316#1.13 -951930664#5 -877396172#0 -877396172#0.15 896786313#3 896786313#3.51 896786313#3.88 896786313#3.110 896786313#3.151 896786313#3.164 896786313#3.186 896786313#3.223 896786313#3.237 896786313#3.246 896786313#3.253 896786312#2 896786312#2.18 896786312#2.32 896786312#3 896786312#3.13 877395784#8 877395784#8.44 877395784#9 951946815#0 -951946826 951946825#1 -951946816#4 -951946816#2 951946827 951946827.47 951946827.51 951946827.55 951946827.59 -951946789#2 -951946787#6 -951946787#4 -951946787#3 -951946787#2 -951946787#0 -896786337#17 -896786337#17.3 -896786337#16 -951946812#2 -951946812#1 -951946813 951946810#1 951946810#2 -896786337#14 -896786337#14.40 -896786337#14.111 -952365020 -952365021 -951878231#2 -951951643#6 -951951643#5 -951951643#4 -951951643#3 -951951643#2 -951951643#1 -951951643#0 -951878263#7 -951878263#6 -951878263#5 -951878269#15 -951891772#2 -951891774 951891771#2 951878270#2 877401978#0 951887660#0 951887660#2 951887660#3 -951917022 -951887661#0 904196454#4 951887664#2 951887663#1 951887663#2 951887661#3 951878266#0"/>
</vehicle>
<vehicle id = "veh6" type= "veh_passenger" depart="7210" >
<route edges =" -45342801#4 -45342801#3 -45342801#2 -45342801#1 -45342801#0 -45342798#1 45342840#0 -45342810#2 -45342810#1 -45342810#0 -45342809#4 45342798#3 45342798#4 45342818#0 -45342817#2 -45342803#7 951370984#0 951370984#1 -45342813#1 -45342813#0 45342798#6 44740902#9 44740902#9.47 44740902#10 44740902#10.9 44740902#11 44740885#7 44740885#8 -45342803#4 45342821#0 -45342822#2 -45342820#1 -45342820#0 -45342803#2 -45342802#2 -45342802#1 -671399056 -671399058#1 -671399058#0 -44740885#3 -44740901#6 -44740901#5 44740896#0 -951417473 -44740957#6 -44740901#2 -671399049#1 -671399049#0 671399051#1 -44740957#4 44740902#14 44740902#14.81 44740902#14.94 -874839172#0 -44740943 -313316091#20 951438760#0 951438760#1 -44740929#4 -44740929#3 951438763#0 951438763#0.24 951438763#0.27 951438763#0.28 951438763#0.32 951438763#0.37 -951438762 -44740929#1 -44740967#3 -44740967#2 -44740967#1 -44740967#0 -902433296 -974189220#5 -974189220#4 -974189220#3 -974189220#2 44740896#3 -44740959#1 -44740959#0 -44740895#2 -44740895#2.69 44740972#0 44740972#1 -44740969#4 -44740969#2 -951439006 -951439007 -951439008 -44740929#10 -951421954 -951421954.20 -44740930#12 -44740930#11 -44740930#10 44740923#0 44740923#1 44740923#2 44740923#3 44740953#2 44740953#3 -44739167#12 -44740927#13 -44740928#2 -951358805#1 -951358805#0 951358806#1 44740926#8 -44739163#16 -44739163#15 -44740930#5 44739156#14 44740981#0 44740983#0 44740983#1 -44740927#8 -44740927#6 -951358798#1 -951358798#1.14 -951358798#0 -951358798#0.10 -951358798#0.14 -951358798#0.17 -951358798#0.19 -951358798#0.21 -951358798#0.22 -951358798#0.24 -951358798#0.36 -951358798#0.39 -951358798#0.41 -951358798#0.42 -951358798#0.45 -951358798#0.47 951366797 951366797.33 951366797.34 951366797.36 951366797.38 951366797.40 951366797.54 951366797.60 951366797.64 951366797.69 951366797.70 951366797.72 951366797.74 951366797.75 951358797#2 951358797#2.23 951358797#3 -951358800#0 44740918#2 -44739163#18 44740927#10 -951358801 -44740953#5 44740951#0 44740951#1 44740949#1 44740949#2 -44740919#1 -44740919#0 44740920#8 -313316091#0 -313316091#0.27 -313316091#0.72 -313316091#0.80 45340579#18 45340579#18.164 44740932#0 -44740934#4 -44740934#3 -44740934#3.33 -909019780#1 -909019780#0 -668599376#0 -668599376#0.11 668599377#1 668599377#1.37 44740916#9 44740916#9.64 -909019783 -909019783.98 -45378660#1 -45378660#1.21 -45378660#1.52 -45378660#1.88 -45378660#1.126 -908560900#3 951346855#0 951346855#0.40 951346855#0.55 951346855#1 951346855#1.8 951346855#1.24 951346855#1.44 -971495601#1 -971495601#0 -313316086 -44739144#26 -903953334#9 -903953334#9.24 -903953334#9.50 -903953334#9.58 -903953334#8 -903953334#8.6 -903953334#8.17 -903953334#8.53 -903953325#4 -903953325#3 -903953325#2 -903953325#2.18 -909778547#2 -909778546#1 951346849 44739144#21 -896786294#12 -896786294#12.19 -896786294#12.25 -896786294#12.30 -896786294#12.36 -896786294#12.41 -909024262#1 -909024262#1.12 909024261 909024261.37 -702673217#1 -702673217#0 -44739144#18 -44739144#16 -44739144#15 671960104#0 671960104#1 671960104#2 671960104#3 671960104#4 671752228#2 671752228#3 -671960101#14 -671960101#13 -671960101#12 -671960101#10 44740913#4 903953323#0 903953323#1 909778559#0 672815156#0 44740912#7 -904286388#7 -904286388#7.24 -904286388#6 -904286388#6.28 904371479#0 904371479#0.10 904371479#0.23 904371479#0.35 904371478#1 904371478#1.38 904371478#2 904371478#2.43 44739144#10 44739144#11 44739144#12 -877396860#22 -952002225#1 -909024265#2 -909024265#2.29 -909024265#1 -909024265#0 896786289#1 896786289#1.39 896786289#2 702673217#3 909024268#0 909024268#0.30 -909024267 -909024267.44 702673217#5 -896786294#0 -896786294#0.13 -877398366#16 896786277#0 896786278#0 896786278#0.39 -896786279#5 -896786279#4 -896786279#4.27 -896786279#3 -896786279#3.22 -896786269#4 896786267#1 896786267#1.28 896786267#2 -877398366#13 -877398366#12 -896786284#0 -896786284#0.50 -877396033#1 -877396033#1.14 876614861#0 876614861#0.13 876614861#1 -909024289#6 -909024289#6.17 -909024289#5 -896786283#1 -896786283#1.4 -896786283#1.24 -896786283#0 -896786283#0.23 896786285 896786285.95 -877398366#9 896786286#0 896786286#0.25 896786286#1 896786286#1.15 951995479#0 951995479#1 -877398520#0 -877398520#0.16 -904371459 -904371459.17 -904371459.33 904371460#2 904371460#2.34 904371458#0 904371458#0.18 904371458#1 904371465#0 904371463#0 904371462#0 877396860#9 877396860#9.41 877396860#10 -671191680#13 -671191680#11 904371466 904371466.63 904371465#2 904371464 896786325#1 -896786328#1 896786326#0 -896786327#1 -896786327#1.48 -896786327#1.55 -896786327#1.60 -896786327#1.64 -896786327#1.68 -896786327#1.74 -896786327#1.124 -896786327#1.170 -896786327#1.205 -896786327#1.211 -896786327#0 877395784#22 877395784#22.56 877395784#23 -952002224#7 -952002224#7.17 -952002224#7.71 -952002224#6 951973432#0 -951951638#7 -951951638#5 -951951638#4 -951951638#3 -951951638#2 -951946794#1 951951639#14 951951639#15 896786337#6 896786337#7 896786337#8 896786337#8.8 -951887683 -951887684 -951887682#6 -951887682#5 -951887682#4 -951887682#3 951887692 -951887691#0 -951887682#0 -951961243 -951961242#0 951961240#3 -951887679#2 951887680 -951887678#1 951887679#0 -951887681 951887675#1 -951887674#2 -951887674#1 -951887674#1.5 -951887674#1.8 -951887674#0 904196453#11 904196453#12 904196453#12.12 904196453#12.67 -904196452#8 -904196452#8.9 -951887672#4 -951887672#3 -951887669#2 -951887669#1 951887668#0 951887668#1 -904196452#6 -904196454#8 -904196454#8.8 951887700#4 951887700#5 951887663#0 951887664#3 877401978#3 877401978#3.14 951887700#8 951887700#8.5 951887700#8.7 951887700#8.11 951887700#10 951887700#11 951961240#0 951961240#0.54 951961240#0.57 951961240#0.59 951961240#0.62 -951961245 951891772#0 -951891773 -951891771#0"/>
</vehicle>
<vehicle id = "veh7" type= "veh_passenger" depart="7210" >
<route edges =" 45342801#5 45342801#5.32 902433317#3 951421968#0 951421968#1 951421968#1.20 -951381446#1 -951368598#0 902433317#6 902433317#7 902433317#8 902433317#8.29 951368593#1 972507120#2 972507120#3 -951366780#1 -951366780#1.2 -951366780#1.41 -951366780#0 951369747#1 951366781#2 951366781#2.22 951366779#1 45342812#1 45342811#2 45342811#2.66 45344273#23 45344273#23.11 45344273#24 -897252873#2 951379889 951379889.24 951379889.29 951379889.37 951379889.42 951379889.48 -951379890#0 -951379890#0.11 -951379890#0.26 -951379890#0.32 -951379890#0.35 -951379890#0.37 -951379890#0.41 -951379890#0.82 -951379890#0.84 -951379890#0.86 -951379890#0.88 -951379890#0.89 -951379890#0.91 -951379890#0.93 -45344320#0 -45344320#0.48 -45344320#0.63 -45344320#0.71 -45344320#0.79 -45344273#19 45344322#0 -951440589 -951440589.14 -951440589.17 -951440589.19 -951440589.21 -951440589.37 -951440589.40 -951440589.41 -951440589.44 -951440589.46 45344322#2 -897252876#5 -897252876#5.20 45344320#2 -45344329#7 45344327#0 -45344331#3 -45344331#2 -45344331#1 952274660 952274660.29 952274660.31 952274660.34 951404486#1 45344326#2 45344326#2.16 45344326#3 897172091#8 699875131#0 699875130#0 699875130#0.20 699875130#1 45344297#0 45344297#0.22 -950400195#2 -950400195#2.10 -950400195#1 -950400195#1.7 -950400195#1.14 -950400195#1.22 -950400195#1.28 -950400195#1.34 -950400195#1.42 -950400195#1.48 -950400195#1.59 -950400195#1.74 -950400195#1.82 950400193#0 950400193#1 950400194#1 950400194#2 -699875131#2 45344335#2 950400190 897172091#10 897172091#12 -950400189 45344335#7 45344320#7 45344320#7.38 45344320#7.55 45344320#7.60 45344320#7.63 45344320#7.67 45344320#7.80 45344320#7.86 -950235691#1 -950235691#0 -950235691#0.4 -950235690#0 -950235690#0.14 700254525#11 700254524#0 700254523 -700254525#0 45344272#4 45344272#5 950389247#0 950389247#0.52 950389247#0.95 950389247#0.101 950389247#0.109 -951441775 -951441775.15 -951441775.28 -951441775.39 -951441775.47 -951441775.60 951381432#1 951381432#1.2 951381432#1.5 951381432#1.8 -897252850#3 -897252850#2 -897252850#2.11 -897252850#2.29 -950389247#2 -950389247#2.20 -950389247#2.28 -950389246 -950389246.5 -950389246.12 -950389246.18 -950389249#2 -950389249#2.2 -950389245 -950389245.21 -950389245.31 -950389245.37 -950389245.42 45344272#7 45344272#7.21 45344272#7.41 45344272#8 45344272#8.32 45344272#9 45344272#9.28 45344304#0 45344304#1 45344304#1.17 45344304#1.60 45344304#2 45344304#2.14 951370962 951370962.22 951370962.29 951370962.36 951370962.44 951370962.57 951370962.66 897252852#5 897252852#6 897252852#6.19 897252858#3 -45344286#12 -45344286#11 -897252856 -897252856.27 -897252856.31 -897252856.36 -897252856.38 -897252856.42 -897252856.46 896892971#1 896892971#2 896892971#2.16 896892971#2.30 896892971#2.60 896892971#3 45344272#11 45344272#11.35 45344272#12 45344272#13 45344272#13.4 45344272#13.35 45344298 896892974 971495602#11 971495602#12 971495602#12.26 971495602#12.77 951442813 951442812#0 -896786335#50 -896892981#13 -896892981#13.5 -896892981#13.13 -896892981#12 951354780 951354780.16 951354780.26 -896786335#47 -896786335#46 -896786335#44 -896786335#44.9 -896786335#44.71 -896786335#43 -896786335#42 -896786335#42.22 896892977#0 896892977#0.14 896892977#1 896892977#1.45 896892977#1.56 -908869250#4 -908869250#4.38 -908869250#3 -908869238 -908869238.92 -896786335#39 -896786335#39.27 -896786335#37 -896786335#36 -896786335#34 -908869252#3 -908869252#3.7 -908869252#3.13 -908869252#3.35 -908869252#3.57 -908869252#3.88 -908869252#3.90 -908869252#3.94 -908869241#1 -908869241#1.27 -908869241#0 -908869241#0.18 -908869241#0.81 -45378649#5 -45378649#5.24 -45378649#5.57 -45378649#5.68 -45378649#3 -45378649#3.8 -45378649#2 -45378649#2.8 -45378649#1 -45378649#0 -45378649#0.9 -896893028#5 -896893028#4 -896893028#4.22 -896893028#3 -896893028#3.26 -896893028#1 -896893028#1.14 896893014#0 896893014#0.49 896893015#1 896893015#1.26 -896893016#1 896893017#0 896893017#1 -896786335#28 951358824#0 951358824#0.11 951358824#0.16 951358824#0.21 951358824#0.29 951358824#0.41 951358824#0.47 951358824#0.52 951354763#2 -951358823 -951358823.62 -951358823.69 -951358823.74 -951358823.78 -896786335#26 -951995494#1 -951995494#0 951354763#4 951354763#5 -951995492#0 -951995491#0 896786266#13 896786266#13.14 -896893013#7 -896893013#7.29 -896893013#7.87 -896893013#6 -896893013#6.15 896893003 951995485 -896893005#0 -896893005#0.12 -896893005#0.57 -896893005#0.74 -896786308#6 -896786308#6.17 896786304#0 896786304#0.56 -877388976#1 -877388976#1.14 -877388976#1.34 -877388976#1.74 896786308#3 896786308#3.37 896893000 896893000.62 896893000.89 896786307#7 896786307#7.3 -896892999 -896892999.50 -896892998#2 -896892998#2.10 -896892998#1 -896892992 -896892992.49 -896786305#1 -896786305#1.42 -896786305#0 -896786305#0.72 -896786305#0.81 -896786309#0 896786304#2 896786300#0 896786300#0.23 896893013#0 896893013#0.10 896893013#0.59 -896893009 -896893009.79 896893012#5 896893012#5.27 896893012#6 896893012#6.21 896893011#1 -909024249 -909024249.19 -909024249.70 909024250#1 909024250#2 909024250#4 909024250#5 909024250#6 909024239#0 909024239#1 909024239#1.17 909024239#2 909024239#2.40 -951983585 -951975994 896786325#3 -896786323#0 -896786323#0.137 -896786323#0.139 -896786323#0.141 -896786324#0 -896786324#0.19 -896786324#0.132 -896786324#0.177 951951639#0 951951639#1 951946802 951946795#2 951946795#3 -951946800#1 951951639#7 951951639#8 951946799 951946795#6 -951946798#2 951951639#10 951946797 951946795#9 -951946796#1 951946804 951946804.28 951946804.31 951946804.34 951946804.37 951946795#11 951946795#11.34 951946795#11.40 951946795#11.45 896786337#10 896786337#10.21 -951887700#20 -951887700#19 -951887686#1 -951887688#2 -951887688#1 -951887688#0 951887687#1 951887687#1.5 951887687#1.11 -951961233#4 -951961233#3 -951961233#3.25 -951961233#3.30 -951961233#3.34 -951961233#3.39 -951961233#1 -951961233#0 -951961233#0.33 -951961233#0.38 -951961233#0.43 -951961233#0.48 -876509484#8 -876509484#8.19 -876509484#7 -876509484#7.6 -876509484#7.25 -876509484#6 -876509484#6.3 -876509484#6.8 -876509484#6.12 -876509484#6.15 951878264#0 951878264#0.74 951878264#2 -951878263#3 -951878266#4 -951878266#4.37 -951878266#2 -951878266#1 -951878266#1.39 -951878266#1.47"/>
</vehicle>
<vehicle id = "veh8" type= "veh_passenger" depart="7210" >
<route edges =" 951370989 951370989.40 951370989.47 951370989.53 951370989.56 951370989.62 951370989.64 951370989.67 -902433320#1 -902433320#0 902433321#2 -45342799#20 -45342797#4 -951368600#1 -951368603#1 951368601#0 -951368602#1 -951368602#0 -45342835#0 -45342797#0 45342834#2 45342809#3 45342809#4 45342809#5 -45342836#2 -951441769 951370985#1 45342839#0 -45342838#2 -45342838#1 -671416443#2 -671416443#1 671416441 -671416442#0 671416444#1 671416444#2 45342810#2 45342810#3 45342810#4 45342810#4.21 45342810#5 45342810#6 45342810#6.38 -44740885#16 45342830#1 -973399407#1 -973399407#0 -44740885#13 -44740885#13.4 -44740885#13.21 -44740885#13.24 -44740885#13.27 -44740885#13.31 -44740885#13.35 -44740885#13.56 -44740885#13.59 -44740885#13.62 -44740885#12 -44740885#12.2 -44740885#12.5 45342829 45342827#1 45342826#1 -44740885#10 45342809#9 45342809#10 45342809#10.44 45342809#11 45342809#12 45342823#0 -45342833#4 -951366786 45342824#3 45342823#2 45342828#1 45342828#1.100 -45344273#6 -45344273#6.40 -45344273#6.59 -951384598#3 -951384598#2 -951404491 -951404491.16 -951404491.28 -951404491.40 -951404491.51 -951384599#0 -700249213#7 -700249213#7.47 -700249213#7.56 -700249213#7.59 -700249213#7.61 -700249213#7.65 45344290#0 45344290#0.48 45344290#0.50 45344290#0.52 45344290#0.55 -951384595#1 -951384595#1.31 -951384595#1.33 -951384595#0 -951384595#0.4 -951384595#0.7 -951384595#0.9 -951384595#0.47 -951384595#0.67 45344292#3 45344290#2 45344290#3 45344290#3.33 45344290#3.44 45344290#3.54 897252863#0 897252863#0.12 897252863#0.19 -45344304#10 -951370970#2 951370963 897252863#5 897252868#0 897252868#0.17 897252868#0.55 897252868#0.76 -700249213#3 -45344287#3 -45344287#3.35 -45344287#3.82 897252863#8 -951370968#0 -951370968#0.20 -951370968#0.23 -951370968#0.25 -951370968#0.28 -951370968#0.32 -951370968#0.36 897252862#2 897252862#2.16 -897252867#1 -897252867#1.8 -897252867#0 -897252867#0.6 -897252867#0.24 -897252867#0.52 -897252867#0.59 -700249213#1 -700249213#0 45344314#3 -45344315#2 -897252860#1 -897252860#0 897252868#3 897252868#3.16 897252868#4 -897252869#2 -897252869#1 -45344315#0 -45344315#0.31 -951404492 700249212#3 -45342808#8 -45342808#7 -45342808#7.16 -45344273#0 -897252881 -45378637#10 -45378637#9 -951404484#10 951404483#2 45378639#8 45378639#8.59 -951404482 -951404484#5 951404481 45378639#10 45378639#11 -951404475 -951404475.33 -951404475.43 -951404476 -951404476.16 -951404476.32 -951404476.50 -951404476.59 -951404476.68 -951404476.84 -951404476.93 -951404476.101 -951404476.106 -951404476.113 971495602#7 971495602#7.32 971495602#7.56 971495602#8 971495602#8.24 971495602#8.86 45340579#6 -908560887#8 -908560887#8.9 -908560887#8.22 -908560887#8.29 -908560887#8.34 -908560887#8.39 -908560887#8.43 -908560887#8.49 -908560887#8.57 -908560887#8.62 -908560887#8.67 -908560887#8.71 -951404467#1 -951404467#1.22 -951404467#1.27 -951404467#1.32 -951404467#1.35 -951435496#1 -951435496#1.16 -951435496#1.17 -951435496#1.18 -951435496#1.19 -951435496#1.20 -951435496#1.22 -951435496#1.27 -951435496#0 -951435494 -951435494.8 -951435494.19 -951435494.25 -951435494.33 -951435494.43 -951435494.50 -951435494.55 -951435494.60 -951435494.65 313316104#5 313316104#5.24 313316104#5.44 313316104#5.58 -45378650#5 -45378650#5.11 45378646#0 45378646#0.20 45378646#1 -908846596#4 45378645#1 45378645#1.23 45378645#1.76 45378647#3 45378646#3 45378646#4 45378646#4.84 45378646#4.109 908560901#3 908560901#4 908560901#4.8 908560901#5 908560901#5.28 908560901#5.87 45378647#0 45378647#0.9 45378647#0.49 908846595#0 908846595#0.61 908846594#0 45378650#0 45378650#0.11 -908846596#1 -908846596#0 -908846596#0.31 908560901#7 908560901#8 908560901#8.23 908560901#8.56 -313316104#0 -313316082 -45378649#12 -45378649#11 -45378649#11.22 -45378649#10 -45378649#10.20 -45378649#9 -45378649#9.7 -45378649#7 -45378649#7.4 951354759#0 951354759#0.23 951354759#0.27 951354759#0.32 951354759#0.43 951354759#1 951354759#1.10 951354759#3 951354759#4 951354759#4.40 -896786262#4 -896786262#4.31 -896786262#3 -896786262#3.9 -896786262#1 -896786262#0 -896786262#0.33 -896786262#0.115 896786260#3 -896786257#0 -896786257#0.24 -896786257#0.34 -896786257#0.89 -896786258#2 -896786258#2.22 -896786256 -896786256.31 -896786256.68 -896786256.122 -909024254 -909024254.11 -909024254.37 896786266#3 896786266#4 896786266#5 -896786260#0 -896786260#0.52 896786257#4 909024248 909024248.50 45378665#5 45378665#5.9 45378665#7 45378665#7.25 45378665#7.48 45378665#8 -896786283#4 -896786283#4.15 -896786283#4.56 951433465 -876614861#3 -876614861#3.25 -909024287#3 -909024287#3.20 -896786283#2 -909024289#4 -909024289#3 -909024289#3.21 -909024289#2 -909024288#1 -909024288#0 -896786287#2 -896786292#3 -896786292#2 -896786292#2.20 -896786292#2.58 896786293#0 896786293#2 896786293#2.8 896786293#2.28 896786293#2.36 896786293#2.45 896786293#2.48 896786293#2.52 -45378665#2 -45378665#2.36 -45378665#1 -45378665#0 -45378665#0.39 -45378665#0.75 -896786335#14 -896786335#14.27 -896786335#13 877398366#0 877398366#0.11 -909024237#0 951983583#1 -896786335#11 -896786335#10 -896786335#10.38 -951976010#1 -951976010#0 -896786311#8 -896786311#7 -896786311#6 -896786311#6.24 951983602 951930672#1 951930673#4 -951930674 -951930674.86 -951930674.89 -951930674.93 -951930674.97 -951930673#1 -951930675 877396172#5 896786320#1 896786320#3 896786320#3.27 896786321#3 896786321#3.48 896786321#3.103 -896786335#8 -896786335#8.39 -896786335#7 951976007 -951976006#1 -951976006#0 -896786315#2 -896786316#3 -896786316#2 -896786316#1 -896786316#1.33 -896786314 -951930663#1 -951930662#1 -951930662#1.134 -951930662#0 -951930661#0 877395784#7 877395784#8 877395784#8.44 877395784#9 877395784#10 877395784#10.31 877395784#10.53 877395784#11 877395784#11.34 877395784#12 877395784#13 877395784#13.21 877395784#14 877395784#14.58 951946833#0 -951946816#11 951946817#1 951946817#2 951946817#3 -951946818#3 -951946818#3.18 -951946818#3.21 951946821#0 951946821#0.45 951946821#0.47 951946821#0.51 951946823 -951946816#9 -951946816#7 -951946816#6 -951946816#6.36 -951946816#6.40 -951946816#6.43 -951946816#6.46 -951946816#5 -951946816#5.8 -951946816#5.11 -951946816#5.14 -951946816#5.18 -951946816#4 -951946816#2 951946827 951946827.47 951946827.51 951946827.55 951946827.59 951946815#3 951946815#4 951946816#0 951946810#0 951946810#1 951946810#2 -896786337#14 -896786337#14.40 -896786337#14.111 -952365020 -952365021 -951878231#2 -951878231#1 -951878231#1.26 -951878231#0 951951645 -951951643#3 -951951646 -951951642#2 -951951642#1 -951951648#1 951951649 951878263#7 951878263#8 951878230#4 -951891772#4 -951891772#3 -951891772#2 -951891774 951891771#2 951930613 951878269#10 -951891766#3 -951891766#2 -951891766#2.2 -951891766#2.6 -951891766#2.10 -951891766#2.15 -951891767 -951878269#7 -951878269#6 951891765#0 -951887656#1 -951887656#0 -951887655#3 951887654#1 951878272#2 -951891763#2 -951891763#1 951891765#3 -951917022 951887661#1 951887661#2 951887663#3 -951887660#0 877401978#1 951878266#0"/>
</vehicle>
<vehicle id = "veh9" type= "veh_passenger" depart="10815" >
<route edges =" 951370989 951370989.40 951370989.47 951370989.53 951370989.56 951370989.62 951370989.64 951370989.67 -902433320#1 -902433320#0 902433321#2 45342799#21 45342799#22 -45342801#3 -45342801#2 -45342801#1 -45342801#0 -45342798#1 45342840#0 45342840#1 45342840#1.79 45342840#1.84 45342840#1.87 45342840#1.91 45342840#1.95 671416444#0 671416442#0 671416442#1 671416442#2 -45342838#1 -45342838#0 -45342810#0 -45342809#4 45342798#3 -45342837 -45342836#0 -45342818#1 -45342817#2 -45342803#7 951370984#0 45342816#1 45342814#3 -45342803#5 -44740885#8 -45342841 -45342802#1 671399046#2 671399046#2.23 671399046#3 671399046#3.56 -44740885#5 -44740885#5.33 -671399053 -671399054#0 671399058#1 671399058#2 44740901#4 44740896#0 44740896#1 -951417474 -44740957#7 -44740957#6 -44740957#5 -671399051#1 -671399051#0 -44740942#1 -44740901#0 -313316089 -951438761 -44740929#5 -44740929#4 672215965#0 672215965#0.11 672215965#1 44740922#1 44740922#2 44740922#2.25 44740953#0 44740953#2 44740940#0 44740945#0 44740945#1 -44739167#13 44740953#4 44740951#0 -44740952 44740953#7 44740949#2 -44740919#1 -44740919#0 44740920#8 -313316091#0 -313316091#0.27 -313316091#0.72 -313316091#0.80 45340579#18 45340579#18.164 44740932#0 909019790#0 909019790#0.39 909019790#1 909019791#1 909019791#2 44740916#6 -909019789#0 -909019789#0.59 -909019789#0.61 -909019789#0.64 -909019789#0.68 44740933#1 909019787 -44740932#4 -44740932#3 44740916#8 -668599377#1 -668599377#1.15 668599376#0 668599376#0.34 668599376#1 668599376#2 668599376#2.6 -668599375#0 -909019783 -909019783.98 -971495601#3 -44740910#8 -44740910#7 -44740910#6 -44740910#5 -44740910#5.72 44740933#3 44740933#3.108 44740933#3.192 44740932#7 313316100#7 313316100#8 313316100#8.72 -971495601#0 -313316086 -44739144#26 -44739144#24 -44739144#22 -896786294#12 -896786294#12.19 -896786294#12.25 -896786294#12.30 -896786294#12.36 -896786294#12.41 -909024262#1 -909024262#1.12 909024261 909024261.37 702673217#2 896786289#3 -896786294#8 -909024279#5 -909024279#5.21 -909024280#1 -909024280#1.18 -909024278#0 -909024278#0.26 -909024278#0.99 -909024279#0 -909024279#0.11 896786295#9 896786295#10 -896786269#9 -896786269#7 896786275#1 896786275#1.7 896786275#2 896786275#2.27 -896786271#0 -896786272#0 896786279#1 896786279#2 896786279#2.21 896786269#5 896786268#0 896786268#1 896786268#2 896786268#2.6 896786268#3 896786295#13 -896786294#5 -896786294#5.6 -896786294#5.10 -896786294#5.13 -896786294#5.16 -896786294#5.19 -896786294#5.22 -896786294#4 -909024256#1 -909024256#1.22 -909024256#1.80 -896786277#3 -896786277#2 -896786277#0 877398366#16 877398366#17 877398366#17.93 877398366#18 877398366#19 -909024264#1 -909024263 -909024263.30 -909024265#0 -896786289#0 -896786289#0.7 -877396860#18 -877396860#18.14 909024294#0 909024294#0.52 909024293#0 909024293#1 909024293#1.20 909024293#1.34 909024293#2 909024293#3 -896786290#4 -896786290#4.18 -896786290#3 -896786290#2 904286383#2 904286383#3 904286383#3.17 904286383#4 -904286382#0 904286381#2 904286381#3 904286381#3.4 904286381#3.18 904286381#4 -951992355 -904286385#10 904371488#0 904371488#0.36 951992356 951992356.11 951992356.20 951992356.29 904286385#13 904286385#13.24 904286384#0 -904371470#1 -904371470#0 904371473#1 904371473#1.24 -904371471 -904371472#0 904286388#3 904286388#3.27 904286388#4 904286388#4.32 -904286389#4 -904286389#4.12 951992350#1 951992350#2 951992350#2.32 951992350#2.34 951992350#2.37 951992350#2.40 -904371481#0 -904371481#0.3 -904371482#0 -904371482#0.24 -904371482#0.73 -671191683#5 -671191683#5.23 -671191683#5.47 -671191683#5.61 -671191683#5.97 -904371473#4 -904286388#0 904286386#7 951973455 -951973456#0 -904286387#2 -904286387#2.12 951973453#0 -951973454 951973452#2 -951973451#3 -951973451#1 -951973451#0 -671191683#0 -671191683#0.3 -671191683#0.13 -671191683#0.21 904371486#0 904371486#1 904371487#0 904371487#1 904371487#1.29 -904286385#6 -904286385#5 -904286385#5.9 -904371490#4 -904371492#6 -904371456#3 -951973471#3 -951973471#2 -951973471#2.11 -951973471#2.14 -951973471#2.17 -951973471#2.20 -904371456#1 -904371456#0 -904371456#0.17 -671191680#0 -671191680#0.38 -671191680#0.44 -671191680#0.48 -671191680#0.53 -671191680#0.58 -671191680#0.63 -671191680#0.76 -896786327#0 -877395784#21 -877395784#21.14 -951951638#10 -951951638#10.18 951973434#1 951951639#3 951951639#4 -951973432#1 -951951638#7 -951951638#5 -951951638#4 -951946798#0 -952002224#3 -952002224#3.30 -952002224#3.48 -952002224#3.80 904286410#0 904286410#0.33 904286409#0 904286409#1 904286409#2 904286409#2.7 -951874859#0 951874858#0 951874858#1 951874858#2 896786339#3 896786339#3.3 896786339#4 896786339#4.4 -904286410#3 -904286410#2 -904286411#3 951874850#0 951874850#1 951874850#1.25 951874850#1.28 951874850#1.31 951874850#1.34 951874850#1.54 951874850#1.57 951874850#1.59 951874850#1.62 -951874849#0 -951874848#0 -952002224#1 896786337#4 896786337#5 896786337#5.11 896786337#6 896786337#7 896786337#8 896786337#8.8 896786337#10 896786337#10.21 -951887700#20 -951887700#19 -951887686#1 -951887688#2 -951887688#1 -951887688#0 951887687#1 951887687#1.5 951887687#1.11 -951961233#4 951961244 951961244.37 951961244.40 951961244.43 951961244.47 -951961242#1 -951961242#0 -951961240#1 -951961245 951891772#0 -951891773 -951891771#0"/>
</vehicle>
<vehicle id = "veh10" type= "veh_passenger" depart="10815" >
<route edges =" 45342801#5 45342801#5.32 902433317#3 951421968#0 951421968#1 951421968#1.20 -951381446#1 951368598#1 -45344271#32 951368595#0 951368595#1 951368595#1.17 951368595#1.34 902433317#8 902433317#8.29 951368593#1 972507120#2 972507120#3 -951369746#4 -951369746#4.24 -951369746#4.27 -951369746#4.29 951369745#0 -951381440 -951369737#0 -951369737#0.5 -951369737#0.11 -951369746#1 -951369746#1.3 -951369746#1.9 -951369746#1.18 -951369746#1.26 -951369746#1.35 -951369741#4 -951369741#2 -951369741#2.8 -951369741#2.11 -951369741#2.13 -951369741#2.16 -951369741#2.19 -951369741#2.22 -951369741#1 -951369741#1.20 -951369741#1.25 -951369741#1.30 -45344273#26 897252876#0 897252876#0.16 897252876#0.57 897252874 897252875#3 45344273#28 -876567894#62 -876567894#62.5 -876567894#62.35 951381443 951381443.47 951381443.49 951381443.52 951381443.54 951381443.57 -950455048#5 -951381441 -951381441.32 -951381441.36 -951381441.38 -951381441.41 -951381441.44 -951381441.47 -951381441.76 -951381441.82 -951381441.85 -951381441.89 -951381441.93 -950455048#1 -950455048#1.49 -950455048#1.67 -950455048#1.78 950455051#0 950455051#0.11 950455051#0.26 950455051#0.42 950455051#1 950455051#1.2 -950235703#2 -950235703#2.9 950455053 -950235692#1 950235694#3 950235694#4 950235694#4.8 950235694#4.19 950235694#4.29 950235694#4.38 950235694#4.48 950235694#4.103 950235694#4.115 950235694#4.119 950235694#4.123 950235694#4.127 951381436 951381436.26 951381436.34 951381436.39 951381436.45 -897252875#0 -897252875#0.4 -897252875#0.15 -897252875#0.35 897252876#3 897252876#4 -45344320#1 -45344320#0 -45344320#0.48 -45344320#0.63 -45344320#0.71 -45344320#0.79 -45344273#19 -45344273#18 -45344273#18.17 45344321#0 45344321#1 897252876#7 897252876#8 902433295#2 45344329#4 45344329#5 -951381435 -45344331#2 -45344331#1 952274660 952274660.29 952274660.31 952274660.34 951404486#1 45344326#2 45344326#2.16 45344326#3 699875133 699875130#1 699875130#3 699875130#3.37 -897172091#0 -45344294#6 -45344294#6.9 -45344294#6.25 -45344294#5 -45344294#5.7 -45344294#4 -45344294#4.7 -45344294#4.18 -45344294#3 897252857 -897252858#1 951370960 951370961#1 -897252850#3 -897252849 -951370962 -951370962.12 -951370962.22 -951370962.34 -951370962.43 -951370962.49 -951370962.56 45344304#3 45344304#3.13 -45344286#12 -45344286#11 951404497 951404497.20 951404497.26 951404497.33 951404497.38 951404497.43 -897252855#0 -45344287#0 -45344287#0.5 -45344287#0.14 -45344286#7 -702632122#4 -702632122#4.41 -702632122#4.57 -702632122#4.62 -702632122#4.67 -702632122#4.71 -702632122#4.73 -702632122#4.77 -702632122#3 -951384601#1 951384600 -702632123#2 -702632123#1 -702632123#1.4 -951404495 -951384610#0 -45344272#11 -45344272#11.24 -45344272#10 -45344272#10.10 -45344272#9 -45344272#9.56 -45344272#8 -45344272#8.25 950389249#0 950389249#0.37 950389249#0.40 950389248 950389248.21 950389248.25 950389248.29 950389248.34 950389248.56 950389248.59 950389248.62 950389248.66 -950389249#3 -950389249#3.3 -950389249#3.22 -950389249#3.25 -950389249#2 -950389249#2.2 -950389245 -950389245.21 -950389245.31 -950389245.37 -950389245.42 -45344272#6 -45344272#5 950233988#0 950233988#1 950233988#1.76 950233988#2 950233988#2.43 950233988#2.55 700278833#4 700278833#5 700278833#5.13 700278833#5.27 700278833#6 700278833#6.17 700278833#6.73 700278833#6.117 45344284#0 45344284#1 45344284#2 45344336#0 -950238193#2 -950238193#1 -950238193#0 45344280#14 45344280#14.13 45344280#15 -45344283#4 -45344336#2 950553578#1 950553577#0 950553577#0.25 950553577#1 950553577#1.2 950553577#1.9 950553577#1.16 950553577#1.22 950553577#1.27 950553577#1.34 950553577#1.44 950238191 950238191.37 -45344283#0 45344282#1 45344282#2 45344282#2.1 45344282#2.36 45344282#3 -45344284#6 -45344284#5 -45344284#4 -950238192#4 45344281#1 -950241866#8 -950241866#7 -950241866#7.13 -950241866#6 -950241866#6.11 -950241866#6.30 -950241865#0 -45344282#5 -45344282#5.52 -45344282#5.87 902433322#0 902433322#0.39 902433322#1 902433322#1.70 -950241847#1 -950241859#1 -951043905#1 -951043905#1.58 -951043905#1.61 -951043905#1.65 -951043905#1.69 -951043905#0 -950241861#1 950241857#0 950241863 950241863.49 950241863.52 950241863.55 950241857#2 950241848#1 950241850 -950241851#0 950241857#4 -950243393#0 45344282#7 897252878#0 950396022#0 950396022#1 950241209#2 950241209#2.6 950241209#2.13 950241209#2.18 950241209#2.32 950241209#2.44 950241209#2.66 950241209#2.89 -950243392#0 -897252877#1 950396025 950241209#4 950241209#4.21 950241209#5 950241209#5.13 45344280#2 45344280#2.21 45344280#3 950394096#0 -950394095 950241866#3 950241866#3.97 950241866#3.100 950241866#3.104 950241868#0 950241868#1 950241868#1.21 950241868#1.45 -950394091#0 -950394091#0.13 -950394091#0.19 -950394091#0.26 -950241869#1 -950241869#1.4 950394090#1 950394090#2 950394090#2.13 950394090#2.18 -950394093#0 -950241233#2 -950238192#2 -950238192#2.18 -950238192#2.21 -950394094 -950394094.12 -950394094.16 -950394094.20 -950394094.25 -950394094.28 -950394094.30 950241229#1 950392116#1 45344280#8 45344280#8.17 45344280#9 45344280#9.7 45344280#11 45344280#11.11 45344280#11.23 -700278832#5 -700278832#5.26 -700278832#4 -700278832#4.61 950390893#0 -950241225#1 -950241224#2 -950390893#3 950390889#0 950390889#0.18 950390889#0.33 950390889#1 950390889#1.8 950390889#1.30 950392119 950392119.22 950392119.30 950392119.37 950392119.49 950392119.57 950392119.64 950392119.68 950392119.73 -700278832#2 -700278832#2.6 -700278832#2.16 -700278832#1 -950392122 -950392122.10 -950392122.15 -950392122.21 -950392122.26 -950392123#0 -950392123#0.9 -950392123#0.20 -950392123#0.27 950241222#1 950241222#1.31 950241222#1.114 -951132943 -951132943.7 -950241220#1 -950389244#1 -950389244#1.19 -950389244#1.34 950390892#1 950390892#1.66 950390892#1.108 950390892#1.149 950390892#1.152 950390892#1.154 950390892#1.157 897252879#15 897252879#17 897252879#18 897252879#18.162 897252879#19 897252879#19.29 897252879#20 950318425#0 950318424#0 -951440585 -951440585.7 -951440585.12 -951440585.20 -951440585.29 -951440585.32 -951440585.35 -951440585.38 -951440585.40 -951440585.42 -951440585.45 -951440585.50 -951440585.53 -951440585.57 -951440585.61 897252879#22 897252879#23 896892972 896892973 896892973.27 896892973.31 -896786335#50 -896892981#13 -896892981#13.5 -896892981#13.13 -951349911#1 -951349910#1 -951349910#1.29 951354767 -896892981#10 -896892981#10.8 951354779 951354779.19 951354779.26 951354779.35 951354779.44 -896786335#46 951358828 951358828.11 951358828.13 951358828.16 951358828.19 951358828.22 951358828.26 951358828.29 951358828.32 951358828.42 951358828.46 951358828.50 951358828.53 951358828.57 -896786247#8 -896786247#7 -896786247#7.2 -908869249#2 -908869249#2.8 -908869249#2.14 -908869249#2.28 -908869249#1 -908869245 -908869245.29 -896892976#1 -896892976#1.4 -896892977#3 -896892977#3.15 -896892977#3.37 -896892977#2 908869250#5 -908869248#1 -908869248#1.4 -908869248#1.6 -908869248#1.9 -908869248#1.11 -908869248#1.19 -951358827#2 -951358826 -951358826.10 -951358826.13 -951358826.16 -951358826.19 -951358826.36 -951358826.40 -951358826.44 -951358826.49 -896786335#42 -896786335#42.22 896892983#0 896892983#0.10 896892983#1 896892983#1.19 -951421976 896892982#2 -896786335#39 -896786335#39.27 -896786335#37 -896786335#36 -896786335#34 -896786335#33 -951354773#3 -951354773#3.20 -951354773#3.23 -951354773#3.26 -951354773#3.28 -951354773#3.30 -951354773#3.32 -951354773#3.34 -951354773#3.38 -951354773#3.40 -951354773#3.43 -951354773#3.45 -951354771#1 -951355290 -951355290.28 -951355290.30 -951355290.31 -951355290.32 -951355290.33 -896893028#3 -896893028#3.26 -896893028#1 -896893028#1.14 -951998766#1 -951998766#1.58 -951998766#1.64 -951998766#1.69 -951998766#1.73 896892983#10 896892983#10.17 896892983#11 -877388646#3 -896893026#2 -896893026#1 -896893026#1.16 -896893026#1.19 -896893026#1.21 -896893026#1.33 -896893026#1.37 -896893026#1.40 -896893026#0 -896786297#6 -896786297#6.39 -896892990 -896892991#0 -896892991#0.12 896893005#3 896893015#0 896893015#1 896893015#1.26 896893015#2 896893015#3 -896893018#0 877388728#14 -896786335#24 -896786335#23 -896786335#23.44 -896786335#22 -896786266#13 -896786266#13.19 -896786266#12 909024250#0 909024250#1 909024250#2 909024250#4 -909024245 -909024245.13 -909024245.37 -909024245.57 -896786335#16 -896786335#16.7 -896786335#15 -896786300#3 -896786300#3.27 -896893012#1 -896893012#0 -896893012#0.11 896786303#5 896786303#5.27 896786303#5.100 896786303#5.124 -896786301 -896786301.70 -896786303#3 896786302#0 896786302#0.18 896786302#0.77 896786302#1 951983592#0 951983592#0.146 951983592#0.152 951983592#0.157 951983620#0 951983621#1 951983621#1.6 951983621#1.10 951983587#5 951983587#6 951983587#7 -951983588#1 -951983588#0 951983586#1 -896786304#8 -896786304#8.29 951983589#1 951983589#1.89 951983589#1.104 951983589#1.119 -951983587#2 -951983587#1 -951983587#0 -951983587#0.39 -951983587#0.45 -951983587#0.51 -951983587#0.56 951976010#0 951976010#1 -896786322 -896786322.14 -896786322.21 -896786323#1 896786325#4 896786325#4.12 -896786335#4 -896786335#4.18 -896786335#3 -896786335#3.10 -896786335#2 951976001#0 951976001#1 -951976000#3 -951976000#2 -951976000#2.3 -951976000#2.6 -951976000#2.8 -951976000#2.12 -951976000#1 -951975999 877395784#15 -951946803#2 -951946803#1 -951946803#1.55 -951946803#1.59 -951946803#1.61 -951946803#1.64 951946795#1 951946795#2 -951946801 951951639#6 951951639#7 951951639#8 951951639#9 951951639#10 951946797 951946795#9 951946795#10 951946795#11 951946795#11.34 951946795#11.40 951946795#11.45 -951887683 -951887684 -951887682#6 -951887682#5 -951887682#4 951887687#0 951887687#0.26 951887688#0 951887689 951961234#0 951961234#1 -951961233#1 -951961233#0 -951961233#0.33 -951961233#0.38 -951961233#0.43 -951961233#0.48 -671756018 -671756019#1 -951961251#1 951961247#0 951961247#1 951961247#1.3 951961247#2 951951644#2 951951644#2.2 951951644#2.5 -951961252 951961249#1 951961249#1.17 951961249#1.19 951961249#1.21 951961249#1.24 -951961255 -951961255.19 -951961255.22 -951961255.25 -951961255.27 951961248#1 -876509484#6 -876509484#6.3 -876509484#6.8 -876509484#6.12 -876509484#6.15 951878264#0 951878264#0.74 951878265#0 -951878266#5 -951878266#5.22 -951878266#5.29 -951878266#5.37 -951878266#4 -951878266#4.37 -951878266#2 -951878266#1 -951878266#1.39 -951878266#1.47"/>
</vehicle>
<vehicle id = "veh11" type= "veh_passenger" depart="10815" >
<route edges =" -45342801#4 45342799#23 951370988 951370988.6 951370988.11 951370988.16 902433317#6 -951368597 45342799#26 45342799#27 45342799#27.15 45342799#27.20 45342799#27.25 45342799#27.36 972507120#0 -903341083#3 -903341083#2 -903341083#1 -951368605#2 -951368605#1 -951368605#0 45342811#1 45342811#2 45342811#2.66 -45344273#22 -45344273#22.6 -45344273#22.18 -45344273#22.35 -45344273#21 -45344273#21.28 -951441770 45342810#5 -973399407#2 -45342830#1 -44740885#15 -44740885#15.10 -951366784 -973399407#0 -44740885#13 -44740885#13.4 -44740885#13.21 -44740885#13.24 -44740885#13.27 -44740885#13.31 -44740885#13.35 -44740885#13.56 -44740885#13.59 -44740885#13.62 -45342810#10 -45342810#10.21 -45342810#8 -45342810#8.5 -45342810#7 -45342810#7.44 44740885#17 -45344273#14 -45344273#14.32 -45344273#13 45342827#0 45342827#0.77 45342827#0.86 45342827#0.92 45342827#0.101 45342827#1 -45342826#0 -45342825#0 45342809#11 -45342831#3 -45342831#2 -951417482#2 -951417482#1 -951417481 -45342805#2 -45342805#1 -45342805#1.66 -45342805#0 -45342805#0.29 897252872 897252872.36 -45342809#16 -45342809#15 45342824#0 45342833#3 45342833#4 45342823#1 45342824#4 45342825#2 45342825#3 45342825#3.55 45342825#3.65 45342825#3.72 45342825#3.81 45342825#3.88 -45344273#11 -45344273#10 -45344273#10.42 -45344273#9 -45344273#8 -45344273#8.10 -45344273#7 -45344273#7.22 -45344273#6 -45344273#6.40 -45344273#6.59 -951384598#3 -951384597 -951384597.29 -951384597.36 -951384597.43 -45344273#3 -45344273#3.6 -45344273#3.14 -45344273#3.31 -45344273#3.48 -45344273#2 -45344273#2.6 -45344273#2.24 -45344273#1 -45344273#1.7 45342808#7 45342808#7.49 951417468 951417468.21 951417468.23 951417468.25 951417468.28 -700249212#1 -700249212#0 700249213#10 700249213#11 45342808#10 951370965#0 951370965#0.26 951370965#0.30 951370965#0.33 951370965#0.37 951370965#0.40 951370965#1 951370965#1.28 951370965#1.49 -951384594 -951384594.27 -951384594.32 -951384594.35 -951384594.38 -951384594.41 897252864#1 897252864#3 -897252871 -897252870 -45344310#2 -45378639#12 -45378639#12.97 -45378639#11 -45378639#10 -45378639#9 -45378639#8 -45378639#8.11 -951404483#2 -951404483#1 -951404474#1 951404473 -951404484#6 -951404484#5 -951404484#4 -951404484#4.8 -951404484#4.11 -951404484#4.13 -951404484#4.15 -951404484#3 -951404484#3.5 -951404484#3.9 -951404484#3.14 -951404484#3.25 -951404484#3.32 -951404484#2 -951404484#2.19 -951404484#2.23 -951404484#2.26 -951404484#2.29 -951404484#0 -951404484#0.3 -951404484#0.6 -951404484#0.11 -951404484#0.38 -45344310#0 -45344310#0.10 -45344310#0.18 -45344310#0.30 -45344310#0.41 -45344310#0.52 971495602#8 971495602#8.24 971495602#8.86 -313316104#6 -313316104#5 -313316104#5.12 -313316104#5.27 -313316104#5.46 -313316104#4 -313316104#4.4 -313316104#4.18 -313316104#4.31 -313316104#4.41 -313316104#4.56 -313316104#3 -951347804#2 -951347804#2.16 -951347804#2.19 -951347804#2.23 -951347804#2.26 -951347804#2.30 -951347804#2.33 -951347804#2.35 -951347804#0 -951347804#0.1 -951347804#0.6 -951347804#0.20 -951347804#0.28 -951347804#0.33 -951347804#0.39 -45378651#0 -45378651#0.20 -313316104#1 -313316104#0 -313316082 -45378649#12 896786247#0 896786247#0.38 -908869234#0 -908869234#0.11 -908869250#0 -908869250#0.11 -908869250#0.41 -45378649#10 -45378649#10.20 -951355292 -951355298#1 -951355298#1.5 -951355298#1.10 -951355298#0 -951355298#0.4 -951354759#1 -951354759#1.6 951355296 -951355297#0 -45378649#7 -45378649#7.4 908869241#0 908869241#0.15 908869241#0.77 -908869239 -908869239.8 -908869239.11 -908869239.13 -908869239.15 -908869239.18 -45378649#3 -45378649#3.8 -45378649#2 -45378649#2.8 951354763#0 -951354765#0 -896786265#6 -896786265#6.26 896786253 896786253.47 896786253.111 896786263#4 -951358821#2 -951358821#2.84 -951358821#2.87 -951358821#2.89 -951358821#2.91 -951358821#2.98 951358820 951358820.10 951358820.13 951358820.16 951358820.19 951358820.36 951358820.39 951358820.42 951358820.44 951358820.47 -896786265#4 -896786265#4.59 -896786265#2 -896786265#0 909024253#0 951995490#0 909024242 -896786293#6 -896786293#5 -896786293#5.20 896786257#7 896786257#7.17 896786257#7.37 896786257#7.44 896786257#7.49 896786257#7.54 -45378665#1 909024239#0 909024239#1 909024239#1.17 909024239#2 909024239#2.40 877398366#3 877398366#4 -904371457 904371458#0 904371458#0.18 904371458#1 877396860#6 877396860#7 877396860#8 877396860#9 877396860#9.41 877396860#10 -671191680#13 -904371463#1 -904371463#1.79 -904371463#0 904371465#1 -904371466 -904371466.129 -671191680#9 -671191680#8 896786325#0 896786325#0.98 896786325#0.107 896786325#0.114 896786325#0.120 896786325#0.127 896786325#0.178 896786325#1 896786325#2 -896786324#1 -896786324#0 -896786324#0.19 -896786324#0.132 -896786324#0.177 -877395784#19 -951946816#15 -951946816#14 -951946816#13 -951946816#13.3 -951946816#13.8 -951946816#12 951946833#1 951946833#2 951946833#3 -951946817#5 -951946817#4 -951946818#3 -951946818#3.18 -951946818#3.21 -951946818#2 -951946806#8 -951946806#7 -951946806#6 -951946806#6.36 -951946806#6.39 -951946806#6.41 -951946806#6.44 -951946806#4 -951946806#2 -951946806#1 -951946806#1.48 -951946806#1.55 -951946806#1.61 -951946806#1.69 -951946806#1.82 -951946806#1.90 -951946806#1.98 -951946806#0 -952365020 -952365021 -951878231#2 951868619#0 951868620#0 -951868611#1 -951878231#0 951951645 -951951643#3 -951951643#2 876509484#2 876509484#3 -951951650 -951951648#2 -951951648#1 -951951648#0 -951951643#0 951878263#8 951878230#4 -951891772#4 -951961237 -951891766#2 -951891766#2.2 -951891766#2.6 -951891766#2.10 -951891766#2.15 -951891766#0 -950288028#0 951878269#5 951891765#0 -951887656#1 -951878272#0 -951878269#2 -951878269#1 -951878269#1.25 -951878269#1.51 -951878269#1.75 -951878269#1.92 -951887655#4 -951887655#3 951887654#1 951887654#2 951887654#3 951891764#2 951891764#4 951878269#7 951878269#9 -951930613 951878270#2 877401978#0 877401978#1 951878266#0"/>
</vehicle>
<vehicle id = "veh12" type= "veh_passenger" depart="14420" >
<route edges =" 951370989 951370989.40 951370989.47 951370989.53 951370989.56 951370989.62 951370989.64 951370989.67 -902433320#1 -902433320#0 902433321#2 45342799#21 45342809#0 45342809#1 45342809#2 45342809#3 45342798#3 -45342837 45342836#2 45342809#6 45342809#7 -45342814#5 -45342818#3 -45342818#2 -45342818#1 -45342818#0 45342798#5 45342813#0 45342813#1 45342813#2 45342814#2 45342814#3 -45342803#5 -45342803#4 -45342803#3 45342820#0 45342820#1 45342822#2 45342821#1 45342821#1.9 45342809#10 45342809#10.44 45342825#0 45342825#1 -45342824#4 -45342823#1 -45342823#0 45342809#14 45342824#0 -45342833#2 -45342833#1 -45342833#0 -45342809#16 -951417479 45342805#2 45342805#3 951417480#0 -951421967 45342831#2 45342822#0 -45342832#1 -45342832#0 -45342804#2 -45342804#1 -45342843#3 -45342843#2 951417477 44740957#1 44740957#2 44740902#14 44740902#14.81 44740902#14.94 -874839172#0 -44740943 -313316091#20 951438760#0 -672215964 -672215965#0 -672215965#0.46 -44740929#3 951438763#0 951438763#0.24 951438763#0.27 951438763#0.28 951438763#0.32 951438763#0.37 951438763#1 951438763#1.5 -44740967#1 44740929#7 44740929#8 44740929#9 44740929#9.20 -951421954 -951421954.20 -44740930#12 -44740930#11 -44740930#10 -44740930#9 44740925#0 44740925#1 -44740926#4 -44740926#3 -951358804 -44740955#1 -44740955#0 44740925#3 44740927#15 -44740924#1 -44740924#0 -44740926#1 44740923#2 44740923#3 -951438764 -951438764.47 -951438764.119 -313316091#14 -313316091#14.20 -671761561 -45378689#4 -45378690#1 -45378690#0 -45378690#0.32 -313316091#11 951438765 -44740948#0 44740946#1 45378682#0 45378682#0.48 45378682#1 -45378689#0 -45378683#0 -45378683#0.55 -313316091#6 45378684#0 45378684#0.22 45378684#0.71 -671178935 -45378685#1 -45378685#0 -45378685#0.42 -313316091#4 -313316091#4.67 -44739163#20 -44739163#19 -44740918#2 -44740918#1 -44740918#0 44740920#6 44740920#8 -313316091#0 -313316091#0.27 -313316091#0.72 -313316091#0.80 45340579#18 45340579#18.164 45340579#19 45340579#19.12 45340579#19.84 909019791#0 -909019790#1 -909019790#0 -909019790#0.12 -44740934#4 668599377#0 668599377#0.33 668599377#1 668599377#1.37 44740916#9 44740916#9.64 44740916#11 44740916#12 44740916#13 909019768#0 909019768#0.14 909019768#0.25 909019768#1 909019767#0 909019767#0.42 909019767#1 909019767#1.24 909019767#1.35 -971495601#5 -45378660#1 -45378660#1.21 -45378660#1.52 -45378660#1.88 -45378660#1.126 -908560900#3 951346855#0 951346855#0.40 951346855#0.55 951346855#1 951346855#1.8 951346855#1.24 951346855#1.44 -971495601#1 -971495601#0 -313316086 -44739144#26 -44739144#24 909024272#0 909024272#0.29 909024272#1 909024272#1.30 909024272#1.53 -909024271#0 -909024271#0.59 -909024271#0.78 -909024277#1 -909024277#1.20 -909024277#0 909024279#4 909024279#4.20 -909024280#1 -909024280#1.18 909024278#1 909024278#1.42 -896786294#6 -896786294#5 -896786294#5.6 -896786294#5.10 -896786294#5.13 -896786294#5.16 -896786294#5.19 -896786294#5.22 -896786294#4 -896786294#3 -896786294#3.26 -896786294#2 -896786294#2.7 -702673217#5 -702673217#4 -702673217#3 -896786289#2 -877398366#18 -909024294#1 909024293#0 -909024290 -909024290.32 -877396860#16 -904286386#1 -904286386#1.81 -904286386#0 -877398366#16 896786277#0 896786278#0 896786278#0.39 896786278#1 896786267#2 877398366#14 877398366#14.18 -904286380#3 -904286380#3.41 -904286380#2 877396860#13 -896786290#2 -896786290#1 -896786290#1.17 -904371470#2 -904286384#0 904371468 904371468.35 904371468.46 904371468.50 904371468.53 904371468.59 904371488#2 904371488#2.33 904371488#2.41 904371488#2.44 904371486#0 951992348 -904286385#8 -904371487#1 -904371487#1.16 -904371487#0 904371486#2 904371486#4 904371486#4.3 -951973462#3 -951973462#3.3 -951973462#3.5 -951973462#3.8 -951973462#3.10 -951973462#3.15 -951973462#3.18 -951973462#3.21 -951973462#3.25 -951973462#3.31 -951973462#3.34 -951973462#3.38 -951973462#3.47 -951973462#3.53 -951973462#3.58 -951973462#3.69 -951973462#3.74 -951973462#3.79 -951973462#2 -951973460#1 -951973460#0 904371493#2 904371493#3 671191681#3 671191681#3.66 -671191682#0 904371489#1 904371489#1.4 904371489#1.8 904371489#1.11 904371489#1.34 951973468#0 -904286385#5 -904286385#5.9 -904286385#4 -951973457 -904371492#4 951973476#0 951973476#1 951973471#3 -904371456#2 -904371456#2.22 -951973471#1 -951973471#0 -671191680#1 -671191680#1.13 -671191680#0 -671191680#0.38 -671191680#0.44 -671191680#0.48 -671191680#0.53 -671191680#0.58 -671191680#0.63 -671191680#0.76 -896786327#0 -877395784#21 -877395784#21.14 -951951638#10 -951951638#10.18 951973434#1 951951639#3 951973426#1 951973426#2 -952002224#6 951973432#0 -951951638#7 -951951638#5 -951973430#0 -952002224#4 -952002224#4.27 -952002224#3 -952002224#3.30 -952002224#3.48 -952002224#3.80 -952002224#2 -952002224#2.36 -952002224#1 896786337#4 951951638#0 -952000397 951951639#15 896786337#6 896786337#7 896786337#8 896786337#8.8 896786337#10 896786337#10.21 -951887700#20 -951887700#19 -951887700#18 -951887690 -951887688#1 -951887688#0 951887687#1 951887687#1.5 951887687#1.11 -951887700#15 -951887700#14 -951961240#3 -951961240#1 -951961245 951891772#0 -951891773 -951891771#0"/>
</vehicle>
<vehicle id = "veh13" type= "veh_passenger" depart="14420" >
[...]
</vehicle>
<vehicle id = "veh18" type= "veh_passenger" depart="21630" >
<route edges =" 951370989 951370989.40 951370989.47 951370989.53 951370989.56 951370989.62 951370989.64 951370989.67 -902433320#1 -902433320#0 902433321#2 -45342799#20 -45342797#4 -45342797#3 -951368601#1 -951368602#1 -951368602#0 45342835#1 45342835#2 45342809#2 -45342834#2 -45342834#1 -45342834#0 44740902#8 -45342798#6 45342813#0 45342817#0 45342816#0 45342816#1 45342814#3 45342814#4 -45342818#3 951370985#0 951370985#1 45342809#7 45342809#8 44740885#10 44740885#11 44740885#11.48 44740885#11.52 45342829 45342827#1 -45342826#0 -45342825#0 45342809#11 -45342831#3 45342822#0 45342822#1 45342822#2 -45342821#0 -45342803#3 -45342803#2 -45342802#2 -45342802#1 44740902#13 44740902#14 44740902#14.81 44740902#14.94 -874839172#0 -44740943 -313316091#20 -313316091#19 -313316091#18 -313316091#18.26 -313316091#17 -313316091#16 45378639#0 45378639#0.48 45378639#1 45378639#1.38 45378639#2 45378639#2.25 45378639#2.39 45378639#3 45378639#4 -699869913 -699869913.14 -699869913.19 -699869913.23 -699869913.28 -45378641#1 -45378641#1.23 -45378641#0 -45378658#1 -45378686#1 45378687#0 -45378688#1 -45378688#0 45378689#2 45378689#4 671761561 -313316091#12 45378690#0 45378690#0.38 -45378691 45378682#1 -45378689#0 45378683#1 -45378655#1 45378640#0 45378640#1 45378658#3 -45378683#3 -45378653#6 -45378685#3 -45378655#3 -45378684#1 -671178935 -45378685#1 45378654#0 45378654#1 45378657#4 -44739163#20 -44739163#19 -44739163#18 -44739163#17 -44739163#16 -44739163#15 -44739163#14 102277232#3 44739156#13 44739156#14 44739156#15 44740985#0 44740987 44740927#8 -951358800#1 -951358800#0 -44740918#1 44740931#0 -44740919#0 -951358792 -951358792.26 -951358792.42 -951358792.53 -951358792.66 896892969#18 -971495601#9 -971495601#9.28 44740934#0 -668599375#2 -668599375#2.17 -668599375#1 -668599375#1.9 -668599375#0 44740916#11 -971495601#6 -971495601#5 -971495601#3 -971495601#1 -908560901#22 -908560901#22.11 -908560901#22.23 -908560901#21 -908560901#21.18 -908560901#21.74 -908560901#20 -908560901#20.10 -908560901#20.61 -908560901#20.115 -908560901#19 -908560901#19.77 -908560901#19.104 -896786299#0 -896786298 -45378665#19 896786295#0 896786295#0.19 951347815 951347815.27 951347815.37 951347815.47 951347815.52 951347815.56 951347815.58 951347815.61 951347815.65 896786296#13 896786296#13.14 896786296#14 896786296#14.11 -909024259#2 -909024259#2.7 -909024259#2.19 -909024259#2.45 -909024259#2.64 -909024259#1 -909024259#1.12 951347814#0 951347814#0.11 951347814#0.14 951433464 -951347813#0 -951347813#0.14 951346845 951346845.67 951346845.72 951346845.75 951346845.78 951346845.83 951346845.113 951346845.132 951346845.134 951346845.135 951346845.137 951346845.140 951346845.164 951346845.165 951346845.166 951346845.168 951346845.169 951346845.171 -45378665#17 -45378665#17.13 -45378665#17.39 -45378665#17.57 -45378665#16 -45378665#14 -45378665#14.14 -45378665#14.36 -951358818#1 -951358818#1.36 -951358818#1.38 -951358818#1.40 -951358818#1.42 -951358818#1.44 -951358818#1.64 -951358818#1.68 -951358818#1.71 -951358818#1.73 -951358818#1.80 -951358818#1.82 -951358818#1.84 -951358818#1.86 -951358818#1.89 -951358818#1.92 -951358818#1.95 -951358818#1.108 -951358818#1.114 -951358818#1.118 -951358817 -951358817.15 -951358817.19 -951358817.24 -951358817.27 -951358817.32 -876614861#5 -876614861#4 -876614861#3 -876614861#3.25 -876614861#2 -909024289#6 -909024289#6.17 909024284 909024284.27 -896786269#0 -896786283#0 -896786283#0.23 -877396033#2 -877396033#1 -877396033#1.14 -877396033#0 671191680#16 671191680#16.17 671191680#16.20 671191680#16.22 671191680#16.24 671191680#16.31 896786269#3 -896786267#0 -896786267#0.60 -896786267#0.197 -896786267#0.219 -896786267#0.239 -896786267#0.242 -896786267#0.244 -896786267#0.246 -896786267#0.249 951346847 951346847.48 951346847.53 951346847.59 951346847.66 951346847.71 951346847.79 951346847.86 951346847.113 951346847.119 951346847.127 951346847.137 896786295#4 896786295#5 896786295#6 896786295#6.12 896786295#8 896786295#8.21 896786295#8.23 909024279#0 909024279#0.32 909024279#1 909024279#1.32 909024279#1.36 909024279#1.38 909024279#1.41 909024279#1.43 909024279#2 909024279#2.24 909024275#0 909024275#0.61 909024275#1 909024273#3 896786296#18 896786296#18.4 896786296#18.17 -903953334#9 -903953334#9.24 -903953334#9.50 -903953334#9.58 -903953327 -903953327.7 -903953327.18 -903953327.71 903953326#1 -903953325#3 909778546#0 909778546#1 -951361609 903953324#1 903953324#1.22 702673217#0 909024262#0 909024262#1 909024262#1.26 -896786294#11 -896786294#11.13 -896786294#10 -896786294#8 -896786294#7 -896786294#7.20 -896786294#6 -896786294#5 -896786294#5.6 -896786294#5.10 -896786294#5.13 -896786294#5.16 -896786294#5.19 -896786294#5.22 -896786294#4 -896786294#3 -896786294#3.26 951992347 896786277#3 -909024256#0 -909024256#0.28 896786279#5 -896786278#0 -896786278#0.50 -896786277#0 -877398366#15 -877398366#15.29 -904286380#3 -904286380#3.41 904286378#0 904286378#1 -904286382#2 877396860#12 -904286380#1 -904286380#1.6 -904286380#1.33 -904286383#2 896786290#2 896786290#3 896786290#4 896786290#4.40 -909024293#3 -909024293#2 904286386#1 904286386#1.27 904286386#2 904286383#0 -904286384#1 -904286384#1.25 904371470#2 -896786290#0 -904286385#12 904286375#0 904286375#1 904286373#0 904286373#1 904286373#2 904286373#2.10 904286371 -671191680#6 -671191680#5 -951973470#1 -951973470#1.3 -951973470#1.6 -951973470#1.10 -951973471#4 -904371456#2 -904371456#2.22 -904371456#1 -904371456#0 -904371456#0.17 -671191680#0 -671191680#0.38 -671191680#0.44 -671191680#0.48 -671191680#0.53 -671191680#0.58 -671191680#0.63 -671191680#0.76 -896786327#0 877395784#22 877395784#22.56 904371492#0 904371492#0.68 904371492#2 -904371491 -904286385#2 -904286385#1 671191681#0 671191681#1 -951973437#1 -951973437#0 -951973436#0 -951973436#0.3 -951973436#0.8 -877395784#25 -877395784#25.55 -952002224#7 -952002224#7.17 -952002224#7.71 -951973426#2 951951638#9 951973434#1 951951639#3 951951639#4 -951973432#1 -951973432#0 -952002224#5 -952002224#5.5 951973430#0 951973430#1 951951639#8 951951639#9 -951946798#1 -951951638#3 -951951638#2 -951946794#1 -951946794#0 951946792#1 896786337#8 896786337#8.8 896786337#10 896786337#10.21 -951887700#20 -951887700#19 -951887700#18 -951887700#17 -951887700#17.17 -951887700#16 -951887700#15 -951961243 -951961242#0 951961240#3 -951887679#2 -951887679#1 -951887679#1.32 -951887679#1.35 -951887679#1.38 -951887679#1.41 -951887679#0 951887678#1 951887678#2 951887700#10 951887700#11 951961240#0 951961240#0.54 951961240#0.57 951961240#0.59 951961240#0.62 -951961245 951891772#0 951891772#1 -951891774 -951891771#1 -951891771#0"/>
</vehicle>
<vehicle id = "veh19" type= "veh_passenger" depart="21630" >
<route edges =" 45342801#5 45342801#5.32 902433317#3 902433317#4 902433317#6 902433317#7 902433317#8 902433317#8.29 902433317#9 951368594#0 951368594#1 951368594#2 45342812#0 -951366779#1 -951366779#0 951366780#1 951366780#1.16 951366780#1.54 -951369746#4 -951369746#4.24 -951369746#4.27 -951369746#4.29 -951369746#2 -951369746#2.3 -951369746#2.36 -951369746#2.42 -951369746#2.45 -951369746#2.50 951369737#0 951369737#0.14 951369737#0.20 -951369738 -951369738.5 -951369738.18 -951369738.24 -951369738.31 -951379885 -951379885.7 -951379885.13 -951379885.20 -951379885.27 951379886#2 951379886#2.14 951379886#2.19 951379886#2.22 951379886#2.25 951379886#2.28 -951369741#1 -951369741#1.20 -951369741#1.25 -951369741#1.30 -45344273#26 897252876#0 897252876#0.16 897252876#0.57 897252876#1 897252876#1.54 -45344336#9 -45344336#9.10 -45344336#9.61 -45344336#9.126 -45344336#9.147 -950455054 -45344320#5 -45344320#5.17 -897172091#13 -897172091#12 -897172091#10 -950400190 -45344335#2 -699875131#1 -699875131#0 -897172091#8 -45344326#3 -45344326#2 -45344326#2.15 -951404486#1 -951404486#0 -45344333#1 -45344333#0 -45344329#4 -45344329#3 45344324#1 45344324#1.27 45344324#1.42 45344324#1.62 45344324#1.71 45344324#1.113 -897172091#3 -897172091#1 -897172091#0 -45344294#6 -45344294#6.9 -45344294#6.25 951381432#0 951381432#0.88 951381432#0.91 951381432#1 951381432#1.2 951381432#1.5 951381432#1.8 897252850#4 951370959 951370959.15 951370959.16 951370959.17 951370959.18 951370959.20 951370959.23 951370959.24 951370959.25 951370959.26 -45344291#4 -45344291#4.36 -951370958 45344288#1 45344288#1.10 45344288#1.64 45344288#1.123 45344288#1.180 45344288#2 -45344295#0 951384595#0 951384595#0.37 951384595#0.57 951384595#0.95 951384595#0.97 951384595#0.100 951384595#1 951384595#1.2 951384595#1.4 45344290#1 45344290#2 -951370976#1 -951370975 897252863#2 897252863#3 -951370963 -951370971#1 951370964 -45344305#1 45344290#5 45344290#5.39 45344290#5.109 45344294#1 897252857 -897252858#1 951370960 -951370961#0 -897252852#5 -897252852#3 -897252853 45344304#2 45344304#2.14 45344304#3 45344304#3.13 -45344286#12 -45344286#11 -45344286#9 -45344286#9.15 -45344286#9.41 -45344286#9.67 -45344286#8 -45344286#7 -702632122#4 -702632122#4.41 -702632122#4.57 -702632122#4.62 -702632122#4.67 -702632122#4.71 -702632122#4.73 -702632122#4.77 -702632123#3 -702632123#2 -702632123#1 -702632123#1.4 -702632123#0 45344272#13 45344272#13.4 45344272#13.35 45344298 896892974 971495602#11 971495602#12 971495602#12.26 971495602#12.77 951442813 951442812#0 -896786335#50 -896786335#49 -896786335#48 -896786335#48.15 -896786335#47 -896786335#46 -896786335#44 -896786335#44.9 -896786335#44.71 -896786335#43 -896786335#42 -896786335#42.22 -896786335#41 908869237 908869237.8 908869237.20 908869237.48 -908869250#3 -908869238 -908869238.92 -896892982#2 -896892982#1 -951349921#5 -951349921#5.15 -951349921#5.17 -951349921#5.20 -951349921#5.23 -951349921#5.25 -951349921#5.32 -951349921#5.34 -951349921#5.37 -951349921#5.39 -951349921#5.42 951349920 951349920.8 951349920.12 951349920.15 951349920.20 951349920.60 951349920.65 951349920.69 951349920.73 951349920.77 -896786335#37 -896786335#36 -951349917#1 -951349917#1.14 -951349917#1.29 -951349917#1.41 -951349917#1.59 -951349918 876614662#9 876614662#9.52 -896786335#32 -896786335#32.17 -896786335#31 -896786335#31.22 -896786335#30 -896786335#29 -896786335#29.17 -896893017#1 -896893018#1 -896893018#1.27 -896893018#0 -877388728#13 -877388728#13.55 -877388728#11 -877388728#10 -877388728#10.145 -877388728#9 -896892995#1 -896892995#1.27 896892997#1 -896892998#2 -896892998#2.10 -896892998#1 -896892998#0 -896892998#0.14 -896892994#0 896786310#2 896786310#2.33 896786310#2.46 896786310#3 896786310#4 896786310#4.16 -951983614 -951983614.49 -951983614.59 -951983614.67 -951930617#10 -951930617#10.5 -951930617#10.15 -951930617#9 951983611#0 951983611#1 -951983610 -951983592#5 -951983592#4 -951983592#4.18 -951983592#4.26 -951983592#4.38 -951988579 951988578#1 -951988576#1 951988574#1 951988574#1.57 951988574#1.71 951988575#1 896786309#2 896786309#2.9 896786309#2.70 896786309#4 896786309#4.4 896786309#4.46 -951995496 -951995496.38 -951995496.44 -951995496.48 -951995496.52 -951995496.56 896786307#1 896786307#2 896786307#2.26 896786307#4 896786307#4.28 877388976#0 877388976#0.43 877388976#0.77 877388976#1 877388976#1.12 877388976#1.51 877388976#1.72 -896786304#0 -896786304#0.49 -896893001 -896893001.19 -896893001.74 896786307#9 896786307#9.1 896786307#9.3 896786307#9.8 896786307#9.58 -896893005#0 -896893005#0.12 -896893005#0.57 -896893005#0.74 896893013#5 896893013#5.3 896893013#5.5 896893013#6 896893013#6.11 951995483 896893004#3 896893004#3.24 896893004#4 896893002 896893002.42 -896786335#22 -896786335#21 -896786335#21.41 -896893011#1 -896893011#0 -896893011#0.52 -896893013#2 896893010 896893010.28 896893010.97 -896893012#5 -896893012#5.11 -896893012#4 -896893012#3 896893006 -896893008#0 896786300#2 896786300#2.40 896786300#2.70 -896893012#1 -896893012#0 -896893012#0.11 -896786303#4 -896786303#4.22 -896786303#3 -896786303#2 -896786303#2.23 -896786303#1 -896786303#1.61 -896786303#0 -896786311#12 -896786311#12.40 -951976011#1 -951976011#0 896786321#2 -896786320#3 -896786320#3.5 -896786320#1 -896786320#0 896786315#2 896786315#4 896786318 896786318.40 896786319#1 896786319#1.7 951976008 951976006#1 -951976007 -896786335#6 -896786335#4 -896786335#4.18 -896786335#3 -896786335#3.10 -896786335#2 951976001#0 951976001#1 -951976000#3 -951930662#2 -951930663#0 877395784#12 -951946824 951946816#9 951946816#10 -951946817#0 877395784#14 877395784#14.58 877395784#15 877395784#17 877395784#17.13 877395784#17.29 -951946816#15 951946795#0 951946795#0.4 951946795#0.7 951946795#0.9 -951946803#0 951951639#1 951946802 951946795#2 951946795#3 951946795#4 951946795#6 -951946798#2 951951639#10 951946797 951946795#9 951946795#10 951946795#11 951946795#11.34 951946795#11.40 951946795#11.45 -951887683 -951887684 -951887682#6 951887695#5 671756019#0 671756019#1 671756019#2 671756019#2.43 671756019#3 -951961235 951961234#1 -951878265#2 -951878265#1 -951878266#5 -951878266#5.22 -951878266#5.29 -951878266#5.37 -951878266#4 -951878266#4.37 -951878266#2 -951878266#1 -951878266#1.39 -951878266#1.47"/>
</vehicle>
<vehicle id = "veh20" type= "veh_passenger" depart="21630" >
<route edges =" -45342801#4 45342799#23 45342799#25 45342799#25.7 45342799#25.22 45342799#26 45342799#27 45342799#27.15 45342799#27.20 45342799#27.25 45342799#27.36 -951370987 -951370987.52 -951370987.54 -951370987.56 -951370987.57 -951370987.59 -951370987.62 -903341083#2 -903341083#1 -903341083#0 672813677#4 672813677#4.8 903341082#1 -951368605#1 -951368605#0 -45342811#0 -45342801#0 -45342798#1 -45342798#0 -45344273#21 -45344273#21.28 -951441770 45342810#5 -973399407#2 -973399407#1 -973399407#0 44740885#14 44740885#14.4 44740885#14.9 -951366785 -45342810#8 -45342810#8.5 45342830#0 44740885#16 44740885#17 902433295#0 902433295#0.35 -951370982#1 -951370980 -951370980.12 -951370980.14 -951370980.16 -951370980.17 -951370980.19 -951370980.24 -45344293#2 -45344293#2.10 -45344293#2.11 -45344293#2.12 -45344293#2.14 -45344293#2.15 -45344293#2.16 -45344293#2.18 -45344293#1 -45344293#1.78 -45344293#0 -45344273#13 -45344273#12 -45344273#11 -45344273#10 -45344273#10.42 -45344273#9 -45344273#8 -45344273#8.10 -45344273#7 -45344273#7.22 -45344273#6 -45344273#6.40 -45344273#6.59 -45344273#5 -45344273#5.6 -45344273#5.15 -45344273#4 -45344273#4.8 -45344273#4.37 -45344273#3 -45344273#3.6 -45344273#3.14 -45344273#3.31 -45344273#3.48 -45344273#2 -45344273#2.6 -45344273#2.24 -45344273#1 -45344273#1.7 -45344273#0 -897252881 -45378637#10 -45378637#9 -951404484#10 -951404483#1 -951404474#1 951404473 -951404484#6 -951404484#5 951404481 45378639#10 45378639#11 45378639#12 45378639#12.8 -45344310#1 -45344310#0 -45344310#0.10 -45344310#0.18 -45344310#0.30 -45344310#0.41 -45344310#0.52 971495602#8 971495602#8.24 971495602#8.86 -313316104#6 -313316104#5 -313316104#5.12 -313316104#5.27 -313316104#5.46 -313316104#4 -313316104#4.4 -313316104#4.18 -313316104#4.31 -313316104#4.41 -313316104#4.56 -313316104#3 -951347804#2 -951347804#2.16 -951347804#2.19 -951347804#2.23 -951347804#2.26 -951347804#2.30 -951347804#2.33 -951347804#2.35 -951347804#0 -951347804#0.1 -951347804#0.6 -951347804#0.20 -951347804#0.28 -951347804#0.33 -951347804#0.39 45378651#1 45378651#2 45378651#2.13 45378652#0 45378652#0.26 908560884#0 908560884#1 908560884#1.8 -951347809 -908560901#12 -908560901#10 -908560901#9 -908560901#9.4 -908560901#9.59 -313316104#0 -313316082 -45378649#12 896786296#0 896786296#1 896786296#1.36 -896786262#6 -896786262#6.15 -896786262#5 -951354759#4 -951354759#4.12 -951354759#3 951355298#0 951355298#0.23 -951355297#1 -951355297#0 -45378649#7 -45378649#7.4 -45378649#5 -45378649#5.24 -45378649#5.57 -45378649#5.68 -45378649#3 -45378649#3.8 -45378649#2 -45378649#2.8 951354763#0 -951354765#0 896786265#7 896786265#7.32 896786264 896786264.45 896786264.99 896786261 -896786258#4 -896786258#2 -896786258#2.22 -896786256 -896786256.31 -896786256.68 -896786256.122 -896786260#4 -896786260#4.11 -896786260#3 896786262#0 896786262#0.24 896786262#0.107 -951354764#1 896786263#2 896786263#2.22 -896786253 -896786253.32 -896786253.95 -896786265#5 -896786265#4 -896786265#4.59 -896786265#2 -896786265#0 909024253#0 909024253#1 909024253#1.45 909024253#2 909024253#2.16 909024252#1 -896786266#7 -896786266#6 -896786266#6.39 -896786260#0 -896786260#0.52 896786257#4 896786257#5 909024241#0 909024241#0.28 909024240 909024240.30 909024240.47 -896786293#3 -896786293#3.1 -45378665#2 -45378665#2.36 -45378665#1 909024239#0 909024239#1 909024239#1.17 -909024237#1 -909024237#1.34 -909024237#1.71 -909024237#1.74 -909024237#1.78 -909024237#1.82 877398366#1 877398366#1.15 877398366#2 877398366#2.36 877398366#3 -951995475#3 -951995475#2 -951995475#1 -951995475#1.25 -951995475#0 909024289#0 909024289#0.3 909024289#0.8 909024289#0.10 909024289#1 909024289#1.7 909024289#1.34 909024289#1.47 909024289#1.63 909024289#1.68 909024289#1.112 -909024288#1 -909024288#0 -896786287#2 -896786287#1 -896786287#0 -896786287#0.41 -896786286#0 -896786286#0.12 877398366#9 -904371462#2 904371460#0 904371460#0.34 951995474 -877396860#7 -877396860#6 -877396860#4 -877396860#3 -951975994 896786325#3 -896786323#0 -896786323#0.137 -896786323#0.139 -896786323#0.141 -896786324#0 -896786324#0.19 -896786324#0.132 -896786324#0.177 951951639#0 951946803#0 -951946795#0 -951946795#0.68 -951946795#0.71 -951946795#0.74 -951946816#14 -951946816#13 -951946816#13.3 -951946816#13.8 -951946816#12 951946833#1 951946833#2 951951641 -951946817#2 -951946817#1 -951946816#10 -951946816#9 -951946816#7 -951946820#1 -951946820#0 951946819#1 -951946818#2 -951946806#8 951951629 -951951630 -951946806#1 -951946806#1.48 -951946806#1.55 -951946806#1.61 -951946806#1.69 -951946806#1.82 -951946806#1.90 -951946806#1.98 -951946806#0 -952365020 -952365021 -951878231#2 -951951643#6 951951644#0 -951951642#4 -951951642#3 -951951642#3.15 -951951642#3.18 -951951642#3.20 -951951642#3.23 -951951642#3.36 -951951642#3.39 -951951642#3.41 -951951642#3.43 951951646 -951951643#2 -951951643#1 951951648#0 951951648#1 -951951642#0 -951878263#5 -951878269#15 951891772#3 -951961237 951891766#3 -951878269#10 -951878269#9 -951930614 951878270#4 -951887656#2 951891765#1 951887654#3 -951891764#1 -951891764#0 951887660#2 -951887662 -951887661#1 951917022 -951891765#3 951891763#1 -951887659#1 -951887659#0 904196454#4 904196454#5 904196454#6 -951887665 -951961236#0 -951887700#4 904196454#8 904196454#8.42 904196452#6 -951887668#1 -951887668#0 951887669#1 951887669#2 -951887672#2 951887667#7 -904196453#11 951887674#0 951887674#1 951887674#1.3 951887674#1.7 951887674#2 951887674#3 951887674#3.83 951887674#3.90 951887674#3.96 951887674#3.101 951887674#3.111 951887674#3.114 951887674#3.118 -951887700#7 -951887700#7.3 -951887700#7.7 951887663#0 951887663#1 951887663#2 951887661#3 951878266#0"/>
</vehicle>
</routes>
