<?xml version="1.0" encoding="UTF-8"?>
<routes xmlns:xsi="http: // www.w3.org/2001/XMLSchema-instance" xsi:noNamespaceSchemaLocation="http: // sumo.dlr.de/xsd/routes_file.xsd">
<vType id="veh_passenger" vClass="passenger"/>

<vehicle id = "veh0" type= "veh_passenger" depart="0" >
<route edges =" -45342801#4 -45342801#3 -45342801#2 -45342801#1 -45342801#0 45342798#2 45342798#3 45342798#4 45342798#5 45342813#0 45342813#1 45342813#2 -45342814#1 44740902#11 44740902#12 44740902#13 44740902#14 44740902#14.81 44740902#14.94 -874839172#0 -44740943 -313316091#20 951438760#0 951438760#1 -44740929#4 -951438759 44740922#2 44740922#2.25 44740953#0 44740953#2 44740953#3 44740953#4 44740953#5 44740953#6 44740953#7 44740949#2 -44740919#1 -44740919#0 44740920#8 -313316091#0 -313316091#0.27 -313316091#0.72 -313316091#0.80 -971495601#9 -971495601#9.28 -971495601#8 -971495601#7 -971495601#6 -971495601#5 -971495601#3 -971495601#1 -971495601#0 -313316086 -44739144#26 -44739144#24 -44739144#22 -44739144#21 -44739144#20 -44739144#19 -44739144#19.14 -44739144#18 -877398366#21 -877398366#20 -877398366#19 -877398366#18 -877398366#17 -877398366#17.7 -877398366#16 -877398366#15 -877398366#15.29 -877398366#14 -877398366#14.72 -877398366#13 -671191680#14 -671191680#13 -671191680#11 -671191680#9 -671191680#8 -671191680#6 -896786326#1 -896786326#0 -896786328#0 -896786328#0.177 -951951638#10 -951951638#10.18 -951951638#9 -951951638#8 -951951638#7 -951951638#5 -951951638#4 -951951638#3 -951951638#2 -951946794#1 -951946794#0 951946792#1 896786337#8 896786337#8.8 -951887683 -951887684 -951887682#6 -951887682#5 -951887682#4 -951887682#3 951887692 -951887691#0 -951887682#0 -951887700#14 -951961240#3 -951961240#1 -951961245 951891772#0 -951891773 -951891771#0"/>
</vehicle>
<vehicle id = "veh1" type= "veh_passenger" depart="0" >
<route edges =" 45342801#5 45342801#5.32 902433317#3 902433317#4 902433317#6 902433317#7 902433317#8 902433317#8.29 951368593#1 972507120#2 45342812#0 45342812#1 45342811#2 45342811#2.66 45344273#23 45344273#23.11 45344273#24 -897252873#2 -897252873#1 -897252873#1.42 -897252873#0 -897252873#0.25 897252876#4 45344320#2 45344320#3 -45344331#4 45344327#1 903341090 -45344335#4 -950235690#1 -950235690#0 -950235690#0.14 700254525#11 700254524#0 700254523 -700254525#0 45344272#4 950233988#0 45344283#9 45344283#10 45344283#10.15 45344283#10.46 45344283#10.69 45344283#10.88 45344283#10.150 45344283#10.196 45344283#10.260 45344283#10.377 45344283#10.468 45344283#10.514 670655885 670655885.12 896892975 971495602#12 971495602#12.26 971495602#12.77 951442813 951442812#0 -896786335#50 -896786335#49 -896786335#48 -896786335#48.15 -896786335#47 -896786335#46 -896786335#44 -896786335#44.9 -896786335#44.71 -896786335#43 -896786335#42 -896786335#42.22 -896786335#41 -896786335#40 -896786335#39 -896786335#39.27 -896786335#37 -896786335#36 -896786335#34 -896786335#33 -896786335#32 -896786335#32.17 -896786335#31 -896786335#31.22 -896786335#30 -896786335#29 -896786335#29.17 -896786335#28 -896786335#27 -896786335#27.19 -896786335#26 -951995494#1 -951995491#2 -951995491#1 -951995491#0 -896786266#12 909024250#0 909024250#1 909024250#2 909024250#4 909024250#5 909024250#6 909024239#0 909024239#1 909024239#1.17 909024239#2 909024239#2.40 -951983585 -951975994 -896786324#1 -896786324#0 -896786324#0.19 -896786324#0.132 -896786324#0.177 951951639#0 951946803#0 951946795#1 951946795#2 951946795#3 951946795#4 951946795#6 951946795#7 951946795#9 951946795#10 951946795#11 951946795#11.34 951946795#11.40 951946795#11.45 896786337#10 896786337#10.21 -951887700#20 -951887700#19 -671756019#4 -951961235 951961234#1 -951878265#2 -951878265#1 -951878265#0 951878264#2 -951878263#3 -951878266#4 -951878266#4.37 -951878266#2 -951878266#1 -951878266#1.39 -951878266#1.47"/>
</vehicle>
<vehicle id = "veh2" type= "veh_passenger" depart="0" >
<route edges =" 951370989 951370989.40 951370989.47 951370989.53 951370989.56 951370989.62 951370989.64 951370989.67 -902433320#1 -902433320#0 902433321#2 45342799#21 45342809#0 45342809#1 45342809#2 45342809#3 45342809#4 45342809#5 45342809#6 45342809#7 45342809#8 44740885#10 -45342826#1 -45342826#0 45342825#1 45342825#2 45342828#0 45342828#1 45342828#1.100 -45344273#6 -45344273#6.40 -45344273#6.59 -951384598#3 -951384598#2 -951404491 -951404491.16 -951404491.28 -951404491.40 -951404491.51 -951384599#0 700249213#9 700249213#10 700249213#11 45342808#10 45342808#11 45342808#11.24 45342808#12 -897252871 -897252870 -45344310#2 -45344310#1 -45344310#0 -45344310#0.10 -45344310#0.18 -45344310#0.30 -45344310#0.41 -45344310#0.52 971495602#8 971495602#8.24 971495602#8.86 -313316104#6 -45378650#5 -45378650#5.11 -45378650#4 45378645#0 45378645#0.44 -908846596#3 -908846596#2 45378650#1 -908846593 -908846593.73 908560901#8 908560901#8.23 908560901#8.56 -313316104#0 -313316082 -45378649#12 896786296#0 896786296#1 896786296#1.36 -896786262#6 -896786262#6.15 -896786262#5 -896786262#4 -896786262#4.31 -896786262#3 -896786262#3.9 -896786262#1 -896786262#0 -896786262#0.33 -896786262#0.115 -896786260#1 -896786260#1.5 -896786260#0 -896786260#0.52 896786257#4 909024248 909024248.50 -45378665#3 -45378665#3.29 -45378665#3.50 -45378665#2 -45378665#2.36 -45378665#1 -45378665#0 -45378665#0.39 -45378665#0.75 -896786335#14 -896786335#14.27 -896786335#13 -896786335#12 -896786335#12.15 -896786335#11 -896786335#10 -896786335#10.38 -951976010#1 -951976011#0 896786321#2 -896786320#3 -896786320#3.5 -896786320#1 -896786320#0 -896786316#3 -896786316#2 -896786316#1 -896786316#1.33 -896786314 -951930663#1 -951930663#0 -877395784#11 -877395784#11.58 951946825#0 951946825#1 -951946816#4 951946844 877399011#1 951946810#2 -896786337#14 -896786337#14.40 -896786337#14.111 -952365020 -952365021 -951878231#2 -951951643#6 -951951643#5 -951951643#4 -951951643#3 -951951643#2 876509484#2 -951951642#1 -951951642#0 -951878263#5 -951878269#15 -951891772#2 -951891774 951891771#2 951878270#2 877401978#0 877401978#1 951878266#0"/>
</vehicle>
<vehicle id = "veh3" type= "veh_passenger" depart="3605" >
<route edges =" -45342801#4 -45342801#3 -45342801#2 -45342801#1 -45342801#0 45342798#2 45342798#3 45342798#4 45342818#0 -45342817#2 -45342803#7 -45342803#6 -45342803#5 -45342803#4 -45342803#3 -45342803#2 -45342803#1 44740957#0 44740957#1 44740957#2 44740902#14 44740902#14.81 44740902#14.94 -874839172#0 -44740943 -313316091#20 951438760#0 951438760#1 -44740929#4 672215965#0 672215965#0.11 672215965#1 44740922#1 44740922#2 44740922#2.25 44740953#0 44740953#2 44740940#0 44740940#1 -44740948#1 -44740948#0 -44740946#0 44740945#1 44739167#14 44740949#0 44740949#1 44740949#2 44739163#20 -313316091#2 -313316091#2.44 -313316091#1 -313316091#1.32 -313316091#0 -313316091#0.27 -313316091#0.72 -313316091#0.80 -971495601#9 -971495601#9.28 -971495601#8 -971495601#7 -971495601#6 -971495601#5 -971495601#3 -971495601#1 -971495601#0 -313316086 -44739144#26 -44739144#24 -44739144#22 -44739144#21 -951346849 909778546#1 -909778547#0 -44739144#19 -44739144#19.14 702673217#0 702673217#1 702673217#2 702673217#3 702673217#4 702673217#5 -896786294#0 -896786294#0.13 -877398366#16 -877398366#15 -877398366#15.29 -877398366#14 -877398366#14.72 -904286382#4 -904286382#4.34 -904286382#3 -904286382#2 -877396860#11 -671191680#13 904286381#0 -904286374 904286375#3 -671191680#9 -671191680#8 -671191680#6 -896786326#1 -896786327#1 -896786327#1.48 -896786327#1.55 -896786327#1.60 -896786327#1.64 -896786327#1.68 -896786327#1.74 -896786327#1.124 -896786327#1.170 -896786327#1.205 -896786327#1.211 -896786327#0 -877395784#21 -877395784#21.14 -951951638#10 -951951638#10.18 -951951638#9 -951951638#8 -951951638#7 -951951638#5 951973430#1 951951639#8 951951639#9 951951639#10 951951639#11 951951639#13 -951946794#0 951946792#1 896786337#8 896786337#8.8 -951887683 -951887684 -951887682#6 -951887682#5 -951887682#4 -951887682#3 951887692 -951887691#0 -951887682#0 -951961243 -951961242#0 -951961240#1 -951961245 951891772#0 -951891773 -951891771#0"/>
</vehicle>
<vehicle id = "veh4" type= "veh_passenger" depart="3605" >
<route edges =" 45342801#5 45342801#5.32 902433317#3 902433317#4 902433317#6 -951368597 45342799#26 45342799#27 45342799#27.15 45342799#27.20 45342799#27.25 45342799#27.36 972507120#0 -903341083#3 -903341083#2 -903341083#1 -951368605#2 -951368605#1 -951368605#0 45342811#1 45342811#2 45342811#2.66 45344273#23 45344273#23.11 -951379890#1 -951379890#1.37 -951379890#1.47 -951379889 -951379889.17 -951379889.23 -951379889.29 -951379889.36 -951379889.42 -897252873#1 -897252873#1.42 -897252873#0 -897252873#0.25 -897252876#3 -45344336#9 -45344336#9.10 -45344336#9.61 -45344336#9.126 -45344336#9.147 -45344336#8 -45344336#8.20 -45344336#8.27 -45344336#8.33 -45344336#7 -45344336#7.6 -45344336#6 -45344336#6.35 -45344336#5 -700254524#1 700254523 -700254525#0 45344272#4 45344272#5 45344272#6 45344272#7 45344272#7.21 45344272#7.41 45344272#8 45344272#8.32 45344272#9 45344272#9.28 45344272#10 45344272#10.38 45344272#11 45344272#11.35 45344272#12 45344272#13 45344272#13.4 45344272#13.35 45344298 896892974 971495602#11 971495602#12 971495602#12.26 971495602#12.77 951442813 951442812#0 -896786335#50 -896892981#13 -896892981#13.5 -896892981#13.13 -896892981#12 -896892981#10 -896892981#10.8 951354779 951354779.19 951354779.26 951354779.35 951354779.44 -896786335#46 -896786335#44 -896786335#44.9 -896786335#44.71 -896786335#43 -896786335#42 -896786335#42.22 -896786335#41 -896786335#40 -896786335#39 -896786335#39.27 -896786335#37 -896786335#36 -896786335#34 -896786335#33 -896786335#32 -896786335#32.17 -896786335#31 -896786335#31.22 -896786335#30 45378649#0 45378649#0.36 45378649#1 45378649#2 45378649#2.17 -896786265#8 -896786265#7 -896786265#7.11 951354765#0 951354763#1 951354763#2 951354763#3 951354763#4 951995493#1 -896786265#2 -896786265#0 909024253#0 951995490#0 909024242 -896786293#6 909024251 909024251.27 909024250#4 909024250#5 909024250#6 909024239#0 909024239#1 909024239#1.17 909024239#2 909024239#2.40 877398366#3 951995475#4 -904371460#4 -904371460#4.9 -904371460#4.24 904371458#0 904371458#0.18 904371458#1 904371465#0 904371465#1 904371465#2 904371464 896786325#1 896786325#2 -896786324#1 -896786324#0 -896786324#0.19 -896786324#0.132 -896786324#0.177 951951639#0 951951639#1 951951639#3 951951639#4 951951639#6 951946800#1 951946795#4 951946795#6 951946795#7 951946795#9 951946795#10 951946795#11 951946795#11.34 951946795#11.40 951946795#11.45 896786337#10 896786337#10.21 -951887700#20 -951887700#19 -671756019#4 -671756019#3 951961253 951961253.63 951961253.68 951961253.73 951961233#1 -951878265#2 -951878265#1 -951878266#5 -951878266#5.22 -951878266#5.29 -951878266#5.37 -951878266#4 -951878266#4.37 -951878266#2 -951878266#1 -951878266#1.39 -951878266#1.47"/>
</vehicle>
<vehicle id = "veh5" type= "veh_passenger" depart="3605" >
<route edges =" 951370989 951370989.40 951370989.47 951370989.53 951370989.56 951370989.62 951370989.64 951370989.67 -902433320#1 -902433320#0 902433321#2 45342799#21 45342809#0 45342809#1 45342809#2 45342809#3 45342809#4 45342809#5 -45342836#2 -951441769 951370985#1 45342809#7 45342809#8 44740885#10 -45342826#1 -45342826#0 45342825#1 -45342824#4 45342823#2 45342828#1 45342828#1.100 -45344273#6 -45344273#6.40 -45344273#6.59 -951384598#3 -951384598#2 -951404491 -951404491.16 -951404491.28 -951404491.40 -951404491.51 -951384599#0 -897252868#5 -897252869#2 -897252869#1 -45344315#0 -45344315#0.31 700249213#11 45342808#10 45342808#11 45342808#11.24 45342808#12 -897252871 -897252870 -45344310#2 -45344310#1 -45344310#0 -45344310#0.10 -45344310#0.18 -45344310#0.30 -45344310#0.41 -45344310#0.52 971495602#8 971495602#8.24 971495602#8.86 -313316104#6 -45378650#5 -45378650#5.11 45378646#0 45378646#0.20 45378646#1 -908846596#4 -908846596#3 -908846596#2 -908846596#1 -908846596#0 -908846596#0.31 908560901#7 908560901#8 908560901#8.23 908560901#8.56 -313316104#0 -313316082 -45378649#12 -45378649#11 -45378649#11.22 -45378649#10 -45378649#10.20 -951355292 -951355298#1 -951355298#1.5 -951355298#1.10 -951355297#1 -951355296 951354759#1 951354759#1.10 951354759#3 951354759#4 951354759#4.40 -896786262#4 -896786262#4.31 -896786262#3 -896786262#3.9 -896786262#1 -896786262#0 -896786262#0.33 -896786262#0.115 -896786260#1 -896786260#1.5 -896786260#0 -896786260#0.52 896786257#4 909024248 909024248.50 -45378665#3 -45378665#3.29 -45378665#3.50 -45378665#2 -45378665#2.36 -45378665#1 -45378665#0 -45378665#0.39 -45378665#0.75 -896786335#14 -896786335#14.27 -896786335#13 -896786335#12 -896786335#12.15 -896786335#11 -896786335#10 -896786335#10.38 -896786335#9 -896786335#8 -896786335#8.39 -896786335#7 -896786335#6 896786319#0 896786319#0.19 896786319#1 896786319#1.7 951976008 -951976006#0 896786315#4 896786319#4 896786319#5 896786319#5.19 896786316#0 -896786314 -951930663#1 -951930663#0 877395784#12 -951946824 -951946822 951946821#2 -951946820#0 -951946819#0 -951946816#5 -951946816#5.8 -951946816#5.11 -951946816#5.14 -951946816#5.18 -951946816#4 -951946816#2 -951946816#1 951946810#0 951946810#1 951946810#2 -896786337#14 -896786337#14.40 -896786337#14.111 -952365020 -952365021 -951878231#2 951868619#0 951868620#0 -951868611#1 -951878231#0 951951645 -951951643#3 -951951643#2 -951951643#1 951951648#0 951951649 -951878263#6 -951878263#5 -951878269#15 -951891772#2 -951891774 951891771#2 951878270#2 877401978#0 951887660#0 -951887663#3 951887661#3 951878266#0"/>
</vehicle>
<vehicle id = "veh6" type= "veh_passenger" depart="7210" >
<route edges =" -45342801#4 45342799#23 672813677#0 672813677#0.22 672813677#0.51 672813677#1 672813677#1.14 672813677#1.27 672813677#2 672813677#4 672813677#4.8 -903341082#0 -903341082#0.45 -45342801#2 -45342801#1 -45342801#0 45342798#2 45342798#3 45342798#4 45342818#0 -45342817#2 -45342803#7 -45342803#6 -45342803#5 -45342803#4 -45342803#3 -45342803#2 -45342803#1 44740957#0 44740957#1 44740957#2 44740902#14 44740902#14.81 44740902#14.94 -874839172#0 -44740943 -313316091#20 -313316091#19 -313316091#18 -313316091#18.26 -313316091#17 -313316091#16 -313316091#14 -313316091#14.20 -313316091#12 -313316091#11 -313316091#10 -313316091#10.31 -313316091#8 -313316091#8.29 -313316091#6 -313316091#5 -313316091#5.44 -313316091#4 -313316091#4.67 -313316091#2 -313316091#2.44 -313316091#1 -313316091#1.32 -313316091#0 -313316091#0.27 -313316091#0.72 -313316091#0.80 -971495601#9 -971495601#9.28 -971495601#8 -971495601#7 -971495601#6 -971495601#5 -971495601#3 -971495601#1 -971495601#0 -313316086 -44739144#26 -44739144#24 -44739144#22 -896786294#12 -896786294#12.19 -896786294#12.25 -896786294#12.30 -896786294#12.36 -896786294#12.41 -896786294#11 -896786294#11.13 -896786294#10 -896786289#3 702673217#3 702673217#4 702673217#5 896786294#2 896786294#2.7 951992347 -896786277#2 896786278#0 896786278#0.39 896786278#1 896786267#2 -904286382#4 -904286382#4.34 -904286382#3 -904286382#2 -877396860#11 -671191680#13 -671191680#11 -671191680#9 -671191680#8 -671191680#6 -896786326#1 -896786327#1 -896786327#1.48 -896786327#1.55 -896786327#1.60 -896786327#1.64 -896786327#1.68 -896786327#1.74 -896786327#1.124 -896786327#1.170 -896786327#1.205 -896786327#1.211 -896786327#0 -877395784#21 -877395784#21.14 -951951638#10 -951951638#10.18 -951951638#9 -951951638#8 -951951638#7 -951951638#5 951973430#1 951951639#8 951951639#9 -951946798#1 -951951638#3 -951951638#2 -951946794#1 -951946794#0 951946792#1 896786337#8 896786337#8.8 -951887683 -951887684 -951887682#6 -951887682#5 951887686#0 -951887688#2 -951887688#1 -951887688#0 -951887687#0 -951887687#0.5 -951887682#3 951887692 -951887691#0 -951887682#0 -951887700#14 -951961240#3 -951961240#1 -951961245 951891772#0 -951891773 -951891771#0"/>
</vehicle>
<vehicle id = "veh7" type= "veh_passenger" depart="7210" >
<route edges =" 45342801#5 45342801#5.32 902433317#3 902433317#4 902433317#6 902433317#7 902433317#8 902433317#8.29 951368593#1 -972507120#0 -951370987 -951370987.52 -951370987.54 -951370987.56 -951370987.57 -951370987.59 -951370987.62 -903341083#2 -903341083#1 -951368605#2 -951368605#1 -951368605#0 45342811#1 45342811#2 45342811#2.66 45344273#23 45344273#23.11 -951379890#1 -951379890#1.37 -951379890#1.47 -951379890#0 -951379890#0.11 -951379890#0.26 -951379890#0.32 -951379890#0.35 -951379890#0.37 -951379890#0.41 -951379890#0.82 -951379890#0.84 -951379890#0.86 -951379890#0.88 -951379890#0.89 -951379890#0.91 -951379890#0.93 45344320#1 45344320#2 45344320#3 45344320#4 45344320#5 45344320#5.26 45344320#6 45344320#6.8 -45344335#7 -45344335#5 -45344335#4 -950235690#1 -950235690#0 -950235690#0.14 700254525#11 700254524#0 700254523 -700254525#0 45344272#4 45344272#5 45344272#6 45344272#7 45344272#7.21 45344272#7.41 45344272#8 45344272#8.32 45344272#9 45344272#9.28 45344272#10 45344272#10.38 45344272#11 45344272#11.35 45344272#12 45344272#13 45344272#13.4 45344272#13.35 45344298 896892974 971495602#11 971495602#12 971495602#12.26 971495602#12.77 951442813 951442812#0 -896786335#50 -896786335#49 -896786335#48 -896786335#48.15 -951354780 -951354780.15 -951354780.24 -896892981#10 -896892981#10.8 -896892981#9 -896892981#8 -896892981#8.18 -896892981#8.50 -896892981#8.78 896892979 896892979.23 896892979.41 951349912#1 951349912#1.12 951349912#1.14 951349912#1.16 951349912#1.19 -896786335#44 -896786335#44.9 -896786335#44.71 -896786335#43 -896786335#42 -896786335#42.22 -896786335#41 -896786335#40 -896786335#39 -896786335#39.27 -896786335#37 -896786335#36 -896786335#34 -896786335#33 -896786335#32 -896786335#32.17 -896786335#31 -896786335#31.22 -896786335#30 -896786335#29 -896786335#29.17 -896786335#28 -896786335#27 -896786335#27.19 -896786335#26 -951995494#1 -951995494#0 951354763#4 951995493#1 -896786265#2 -896786265#0 909024253#0 951995490#0 951995490#1 951995490#1.10 951995490#1.14 951995490#1.17 951995490#1.20 909024250#2 909024250#4 909024250#5 909024250#6 909024239#0 909024239#1 909024239#1.17 909024239#2 909024239#2.40 877398366#3 951995475#4 904371460#5 -896786328#3 -896786328#3.70 -896786328#2 -896786328#2.49 896786325#2 896786325#3 -896786323#0 -896786323#0.137 -896786323#0.139 -896786323#0.141 -896786324#0 -896786324#0.19 -896786324#0.132 -896786324#0.177 951951639#0 951946803#0 951946795#1 951946795#2 951946795#3 951946795#4 951946795#6 951946795#7 951946795#9 951946795#10 951946795#11 951946795#11.34 951946795#11.40 951946795#11.45 896786337#10 896786337#10.21 -951887700#20 -951887700#19 -671756019#4 -951961235 951961234#1 -951878265#2 951878263#1 951878263#1.39 951878263#1.46 951878263#1.53 951878263#1.72 951878263#1.75 951878263#2 951878263#2.2 -951878266#4 -951878266#4.37 -951878266#2 -951878266#1 -951878266#1.39 -951878266#1.47"/>
</vehicle>
<vehicle id = "veh8" type= "veh_passenger" depart="7210" >
<route edges =" 951370989 951370989.40 951370989.47 951370989.53 951370989.56 951370989.62 951370989.64 951370989.67 -902433320#1 -902433320#0 902433321#2 45342799#21 45342809#0 45342809#1 45342809#2 45342809#3 45342809#4 45342809#5 45342809#6 45342809#7 45342809#8 45342809#9 45342809#10 45342809#10.44 45342809#11 45342809#12 45342823#0 45342823#1 45342823#2 45342828#1 45342828#1.100 -45344273#6 -45344273#6.40 -45344273#6.59 -951384598#3 -951384598#2 -951404491 -951404491.16 -951404491.28 -951404491.40 -951404491.51 -951384599#0 -897252868#5 -897252869#2 -897252869#1 -45344315#0 -45344315#0.31 700249213#11 45342808#10 45342808#11 45342808#11.24 45342808#12 -897252871 -897252870 -45344310#2 -45344310#1 -45344310#0 -45344310#0.10 -45344310#0.18 -45344310#0.30 -45344310#0.41 -45344310#0.52 971495602#8 971495602#8.24 971495602#8.86 -313316104#6 -45378650#5 -45378650#5.11 -45378650#4 -45378650#3 -45378650#3.29 -45378650#2 -45378650#2.42 -45378650#2.62 -908846593 -908846593.73 908560901#8 908560901#8.23 908560901#8.56 -313316104#0 -313316082 -45378649#12 896786296#0 -951355298#2 -951355298#2.7 -951355298#2.9 -951355298#2.11 -951355298#2.15 -951355298#2.38 -951355298#2.43 -951355298#1 -951355298#1.5 -951355298#1.10 -951355298#0 -951355298#0.4 951354759#3 951354759#4 951354759#4.40 -896786262#4 -896786262#4.31 -896786262#3 -896786262#3.9 -896786262#1 -896786262#0 -896786262#0.33 -896786262#0.115 -896786260#1 -896786260#1.5 -896786266#5 896786257#2 896786257#2.28 896786257#2.57 896786257#3 896786257#3.14 896786257#4 909024248 909024248.50 -45378665#3 -45378665#3.29 -45378665#3.50 -45378665#2 -45378665#2.36 -45378665#1 -45378665#0 -45378665#0.39 -45378665#0.75 -896786300#3 -896786300#3.27 -896893012#1 -896893012#0 -896893012#0.11 -896786303#4 -896786303#4.22 -896786303#3 -896786303#2 -896786303#2.23 -951983587#8 -951983588#1 -951983588#0 -951983586#0 -896786303#0 -896786311#12 -896786311#12.40 -951976011#1 -951976011#0 896786321#2 -896786320#3 -896786320#3.5 -896786320#1 -896786320#0 -896786316#3 -896786316#2 -896786316#1 -896786316#1.33 -896786314 -951930663#1 -951930663#0 -877395784#11 -877395784#11.58 951946825#0 951946825#1 -951946816#4 -951946816#2 -951946816#1 951946810#0 951946810#1 951946810#2 -896786337#14 -896786337#14.40 -896786337#14.111 -952365020 -952365021 -951878231#2 -951878231#1 -951878231#1.26 -951878231#0 951951645 -951951643#3 -951951643#2 -951951643#1 951951648#0 951951648#1 -951951642#0 -951878263#5 -951878269#15 -951891772#2 -951891774 951891771#2 951878270#2 877401978#0 877401978#1 951878266#0"/>
</vehicle>
<vehicle id = "veh9" type= "veh_passenger" depart="10815" >
<route edges =" 951370989 951370989.40 951370989.47 951370989.53 951370989.56 951370989.62 951370989.64 951370989.67 -902433320#1 -902433320#0 902433321#2 -45342799#20 -45342797#4 -45342797#3 -45342797#2 -45342797#1 -45342797#0 -45342834#1 -45342834#0 44740902#8 -45342798#6 45342813#0 45342817#0 45342816#0 -951370984#0 -45342803#6 -45342803#5 -45342803#4 -45342803#3 -45342803#2 -45342803#1 44740957#0 44740957#1 44740957#2 44740902#14 44740902#14.81 44740902#14.94 -874839172#0 -44740943 -313316091#20 -313316091#19 -313316091#18 -313316091#18.26 -313316091#17 -313316091#16 -313316091#14 -313316091#14.20 -313316091#12 -313316091#11 -313316091#10 -313316091#10.31 -313316091#8 -313316091#8.29 -44739167#15 -44739167#15.17 44740949#0 44740949#1 44740949#2 -44740919#1 -44740919#0 44740920#8 -313316091#0 -313316091#0.27 -313316091#0.72 -313316091#0.80 -971495601#9 -971495601#9.28 -971495601#8 -971495601#7 -971495601#6 -971495601#5 -971495601#3 -971495601#1 -971495601#0 -313316086 -44739144#26 -44739144#24 -44739144#22 -896786294#12 -896786294#12.19 -896786294#12.25 -896786294#12.30 -896786294#12.36 -896786294#12.41 -896786294#11 -896786294#11.13 -896786294#10 -896786294#8 -896786294#7 -896786294#7.20 -896786294#6 -896786294#5 -896786294#5.6 -896786294#5.10 -896786294#5.13 -896786294#5.16 -896786294#5.19 -896786294#5.22 -896786294#4 -909024256#1 -909024256#1.22 -909024256#1.80 -896786277#3 -896786277#2 -896786277#0 -896786290#5 -896786290#4 -896786290#4.18 -896786290#3 -896786290#2 -904286383#1 -904286384#1 -904286384#1.25 904371470#2 -904286381#6 -904286381#4 -904286372#1 -904286372#0 904286373#4 -904286385#6 951973468#1 -951973469 904371490#2 951973470#0 -951973471#4 -904371456#2 -904371456#2.22 -904371456#1 -904371456#0 -904371456#0.17 -671191680#0 -671191680#0.38 -671191680#0.44 -671191680#0.48 -671191680#0.53 -671191680#0.58 -671191680#0.63 -671191680#0.76 -896786327#0 -877395784#21 -877395784#21.14 -951951638#10 -951951638#10.18 951973434#1 951951639#3 951973426#1 -951951638#8 -951951638#7 -951951638#5 -951973430#0 -952002224#4 -952002224#4.27 951946798#0 -951951638#3 -951951638#2 -951946794#1 -951946794#0 951946792#1 896786337#8 896786337#8.8 896786337#10 896786337#10.21 -951887700#20 -951887700#19 -951887700#18 -951887690 -951887688#1 -951887688#0 951887687#1 951887687#1.5 951887687#1.11 -951961233#4 951961244 951961244.37 951961244.40 951961244.43 951961244.47 -951961242#1 -951961242#0 -951961240#1 -951961245 951891772#0 -951891773 -951891771#0"/>
</vehicle>
<vehicle id = "veh10" type= "veh_passenger" depart="10815" >
<route edges =" 45342801#5 45342801#5.32 902433317#3 902433317#4 902433317#6 902433317#7 902433317#8 902433317#8.29 902433317#9 951368594#0 951368594#1 -951369743#1 -951369743#1.33 -951369743#1.39 -951369743#0 -951369743#0.6 951369744#2 951369744#2.22 951369744#2.31 951369744#3 951369744#3.5 -951369745#1 -951369745#1.3 -951369745#1.8 -951381440 -951369737#0 -951369737#0.5 -951369737#0.11 -951369746#1 -951369746#1.3 -951369746#1.9 -951369746#1.18 -951369746#1.26 -951369746#1.35 -951369741#4 -951379885 -951379885.7 -951379885.13 -951379885.20 -951379885.27 951379886#2 951379886#2.14 951379886#2.19 951379886#2.22 951379886#2.25 951379886#2.28 -951369741#1 -951369741#1.20 -951369741#1.25 -951369741#1.30 45344273#27 45344273#27.17 -897252875#3 -897252874 897252876#1 897252876#1.54 897252876#3 897252876#4 45344320#2 45344320#3 45344320#4 -897172091#13 -897172091#12 903341090 -45344335#4 -45344335#3 -45344335#2 -45344335#1 -950235689#2 -950400194#1 -950400194#0 950400195#2 950400195#2.6 -45344297#0 -45344297#0.11 699875130#3 699875130#3.37 -897172091#0 -45344294#6 -45344294#6.9 -45344294#6.25 -45344294#5 -45344294#5.7 -45344294#4 -45344294#4.7 -45344294#4.18 -45344294#3 -45344294#1 -45344294#0 -45344304#5 -45344286#12 -45344286#11 -897252856 -897252856.27 -897252856.31 -897252856.36 -897252856.38 -897252856.42 -897252856.46 -896892971#0 -896892971#0.14 -896892971#0.28 -896892971#0.54 -896892971#0.88 -45344286#8 -45344286#7 -702632122#4 -702632122#4.41 -702632122#4.57 -702632122#4.62 -702632122#4.67 -702632122#4.71 -702632122#4.73 -702632122#4.77 -702632123#3 -702632123#2 -702632123#1 -702632123#1.4 -702632123#0 45344272#13 45344272#13.4 45344272#13.35 45344298 896892974 971495602#11 971495602#12 971495602#12.26 971495602#12.77 951442813 951442812#0 -896786335#50 -896892981#13 -896892981#13.5 -896892981#13.13 -896892981#12 -896892981#10 -896892981#10.8 -896892981#9 -896892981#8 -896892981#8.18 -896892981#8.50 -896892981#8.78 896892979 896892979.23 896892979.41 951349912#1 951349912#1.12 951349912#1.14 951349912#1.16 951349912#1.19 -896786335#44 -896786335#44.9 -896786335#44.71 -896786335#43 -896786335#42 -896786335#42.22 -896786335#41 -896786335#40 -896786335#39 -896786335#39.27 -896786335#37 -896786335#36 -951349917#1 -951349917#1.14 -951349917#1.29 -951349917#1.41 -951349917#1.59 -951349918 -951354772#1 -951354772#1.39 -951354772#1.50 -951354772#1.59 -951354772#0 -951354772#0.6 -951355289#1 -951355289#0 896893016#0 896893016#1 896893015#2 896893015#3 -896893018#0 877388728#14 -896786335#24 -896786335#23 -896786335#23.44 -896786335#22 -896786335#21 -896786335#21.41 -896893011#1 -896893012#6 -896893012#6.12 -896893012#5 -896893012#5.11 -896893012#4 -896893012#3 -896893012#2 -896893012#2.9 -896893012#1 -896893012#0 -896893012#0.11 -896786303#4 -896786303#4.22 -896786303#3 -896786303#2 -896786303#2.23 -896786303#1 -896786303#1.61 -896786303#0 896786311#13 896786311#13.28 -896786335#10 -896786335#10.38 -896786335#9 -896786335#8 -896786335#8.39 -896786335#7 -896786335#6 -896786335#4 -896786335#4.18 -896786335#3 -896786335#3.10 -896786335#2 951976001#0 -951976002 -951976000#1 -951975999 877395784#15 877395784#17 877395784#17.13 877395784#17.29 877395784#19 951951639#0 951951639#1 951946802 951946795#2 951946795#3 951946795#4 951946795#6 951946795#7 951946795#9 951946795#10 951946795#11 951946795#11.34 951946795#11.40 951946795#11.45 -951887683 -951887684 -951887682#6 -951887682#5 951887686#0 951887686#1 -671756019#4 -951961235 951961234#1 -951878265#2 -951878265#1 -951878266#5 -951878266#5.22 -951878266#5.29 -951878266#5.37 -951878266#4 -951878266#4.37 -951878266#2 -951878266#1 -951878266#1.39 -951878266#1.47"/>
</vehicle>
<vehicle id = "veh11" type= "veh_passenger" depart="10815" >
<route edges =" -45342801#4 45342799#23 45342799#25 45342799#25.7 45342799#25.22 45342799#26 45342799#27 45342799#27.15 45342799#27.20 45342799#27.25 45342799#27.36 972507120#0 972507120#2 45342812#0 45342812#1 45342811#2 45342811#2.66 -45344273#22 -45344273#22.6 -45344273#22.18 -45344273#22.35 -45344273#21 -45344273#21.28 -45344273#19 -45344273#18 -45344273#18.17 -45344273#17 -45344273#17.20 -45344273#17.31 -45344273#16 -45344273#16.5 -45344273#16.30 -45344273#14 -45344273#14.32 -45344273#13 -45344273#12 -45344273#11 -45344273#10 -45344273#10.42 -45344273#9 -45344273#8 -45344273#8.10 -45344273#7 -45344273#7.22 -45344273#6 -45344273#6.40 -45344273#6.59 -951384598#3 -951384597 -951384597.29 -951384597.36 -951384597.43 -45344273#3 -45344273#3.6 -45344273#3.14 -45344273#3.31 -45344273#3.48 -45344273#2 -45344273#2.6 -45344273#2.24 -45344273#1 -45344273#1.7 -45344273#0 -897252881 -45378637#10 -45378637#9 -951404484#10 -951404483#1 -951404474#1 951404473 -951404484#6 -951404484#5 951404481 45378639#10 45378639#11 45378639#12 45378639#12.8 -45344310#1 -45344310#0 -45344310#0.10 -45344310#0.18 -45344310#0.30 -45344310#0.41 -45344310#0.52 971495602#8 971495602#8.24 971495602#8.86 -313316104#6 -313316104#5 -313316104#5.12 -313316104#5.27 -313316104#5.46 -951435500 -951435500.28 -951435500.32 -951435500.35 -951435500.37 -951435500.40 -951435500.48 -951435500.51 -951435500.54 -951435500.57 -951435500.60 -951435500.63 -951435500.67 -951435500.70 -951435500.74 -951435500.78 -951435500.92 -951435500.96 -951435500.100 -951435500.103 -951435500.108 -951435500.117 -951435500.121 -951435500.125 -951435500.137 -951435500.141 -951435500.145 -951435500.148 -313316104#3 -313316104#2 -313316104#2.13 -313316104#2.35 -313316104#2.44 -313316104#1 -313316104#0 -313316082 -45378649#12 -45378649#11 -45378649#11.22 -45378649#10 -45378649#10.20 -45378649#9 -45378649#9.7 -45378649#7 -45378649#7.4 -45378649#5 -45378649#5.24 -45378649#5.57 -45378649#5.68 -45378649#3 -45378649#3.8 -896786265#8 -896786265#7 -896786265#7.11 951354765#0 951354763#1 951354763#2 951354763#3 951995494#0 -951995491#2 -951995491#1 951995492#0 951995492#1 -896786265#0 896786266#11 896786266#11.13 909024250#0 909024250#1 909024250#2 909024250#4 909024250#5 909024250#6 909024239#0 909024239#1 909024239#1.17 -909024237#1 -909024237#1.34 -909024237#1.71 -909024237#1.74 -909024237#1.78 -909024237#1.82 877398366#1 877398366#1.15 877398366#2 877398366#2.36 877398366#3 951995475#4 904371460#5 -877396860#3 -951975994 -896786324#1 -896786324#0 -896786324#0.19 -896786324#0.132 -896786324#0.177 -877395784#19 -877395784#17 -877395784#17.8 -877395784#17.24 -877395784#15 951946833#0 -951946816#11 951946817#1 951946817#2 951946817#3 -951946818#3 -951946818#3.18 -951946818#3.21 -951946818#2 -951946818#0 951946833#9 951946833#9.22 -951951630 -951946806#1 -951946806#1.48 -951946806#1.55 -951946806#1.61 -951946806#1.69 -951946806#1.82 -951946806#1.90 -951946806#1.98 -951946806#0 -952365020 -952365021 -951878231#2 -951951643#6 951951644#0 -951951642#4 -951951642#3 -951951642#3.15 -951951642#3.18 -951951642#3.20 -951951642#3.23 -951951642#3.36 -951951642#3.39 -951951642#3.41 -951951642#3.43 -951951642#2 -951951642#1 -951951642#0 -951878263#5 -951878269#15 -951878269#14 -951878269#13 -951878269#12 -951891766#3 -951891766#2 -951891766#2.2 -951891766#2.6 -951891766#2.10 -951891766#2.15 -951891767 -951878269#7 -951891764#4 -951891764#2 -951891764#1 -951891764#0 -951887663#3 951887661#3 951878266#0"/>
</vehicle>
<vehicle id = "veh12" type= "veh_passenger" depart="14420" >
<route edges =" 951370989 951370989.40 951370989.47 951370989.53 951370989.56 951370989.62 951370989.64 951370989.67 -902433320#1 -902433320#0 902433321#2 45342799#21 45342809#0 951368600#0 -951368603#1 -951368603#0 -45342835#1 -45342835#0 -45342797#0 -45342834#1 -45342834#0 44740902#8 44740902#9 44740902#9.47 44740902#10 44740902#10.9 44740902#11 44740902#12 44740902#13 44740902#14 44740902#14.81 44740902#14.94 -874839172#0 -44740943 -313316091#20 -313316091#19 -313316091#18 -313316091#18.26 -313316091#17 -313316091#16 -313316091#14 -313316091#14.20 -313316091#12 -313316091#11 -313316091#10 -313316091#10.31 -313316091#8 -313316091#8.29 -313316091#6 -313316091#5 -313316091#5.44 -313316091#4 -313316091#4.67 -313316091#2 -313316091#2.44 -313316091#1 -313316091#1.32 -313316091#0 -313316091#0.27 -313316091#0.72 -313316091#0.80 -971495601#9 -971495601#9.28 44740934#0 -668599375#2 -668599375#2.17 -668599375#1 -668599375#1.9 -668599375#0 44740916#11 -971495601#6 -971495601#5 -971495601#3 -971495601#1 -971495601#0 -313316086 -44739144#26 -903953334#9 -903953334#9.24 -903953334#9.50 -903953334#9.58 -903953327 -903953327.7 -903953327.18 -903953327.71 -903953326#0 -44739144#22 -896786294#12 -896786294#12.19 -896786294#12.25 -896786294#12.30 -896786294#12.36 -896786294#12.41 -896786294#11 -896786294#11.13 -896786294#10 -896786294#8 -896786294#7 -896786294#7.20 -896786294#6 -896786294#5 -896786294#5.6 -896786294#5.10 -896786294#5.13 -896786294#5.16 -896786294#5.19 -896786294#5.22 -896786294#4 -896786294#3 -896786294#3.26 -896786294#2 -896786294#2.7 -896786294#0 -896786294#0.13 904286386#0 904286386#1 904286386#1.27 904286386#2 904286386#3 904286386#3.9 904286386#3.31 904286386#4 904286386#4.19 904286386#6 904286386#7 -671191683#1 -671191683#1.8 -671191683#1.21 -671191683#0 -671191683#0.3 -671191683#0.13 -671191683#0.21 904371486#0 904371486#1 904371487#0 -904371489#2 951973468#0 951973468#1 -951973469 904371490#2 904371490#4 -904286385#4 -951973457 -904371492#4 951973476#0 951973476#1 -951973471#2 -951973471#2.11 -951973471#2.14 -951973471#2.17 -951973471#2.20 -904371456#1 -904371456#0 -904371456#0.17 -671191680#0 -671191680#0.38 -671191680#0.44 -671191680#0.48 -671191680#0.53 -671191680#0.58 -671191680#0.63 -671191680#0.76 -896786327#0 -877395784#21 -877395784#21.14 -951951638#10 -951951638#10.18 951973434#1 951951639#3 951973426#1 -951951638#8 -951951638#7 951946800#0 951951639#7 951951639#8 951951639#9 951951639#10 951951639#11 951951639#13 951951639#14 951951639#15 896786337#6 896786337#7 896786337#8 896786337#8.8 896786337#10 896786337#10.21 -951887700#20 -951887695#5 -951887682#5 951887686#0 -951887688#2 -951887688#1 951887689 -951887700#16 -951887700#15 -951887700#14 -951961240#3 -951961240#1 -951961245 951891772#0 -951891773 -951891771#0"/>
</vehicle>
<vehicle id = "veh13" type= "veh_passenger" depart="14420" >
<route edges =" 45342801#5 45342801#5.32 902433317#3 902433317#4 902433317#6 902433317#7 902433317#8 902433317#8.29 951368593#1 972507120#2 972507120#3 -951369746#4 -951369746#4.24 -951369746#4.27 -951369746#4.29 -951369746#2 -951369746#2.3 -951369746#2.36 -951369746#2.42 -951369746#2.45 -951369746#2.50 -951369746#1 -951369746#1.3 -951369746#1.9 -951369746#1.18 -951369746#1.26 -951369746#1.35 -951369741#4 -951369741#2 -951369741#2.8 -951369741#2.11 -951369741#2.13 -951369741#2.16 -951369741#2.19 -951369741#2.22 -951369741#1 -951369741#1.20 -951369741#1.25 -951369741#1.30 -45344273#26 897252876#0 897252876#0.16 897252876#0.57 897252876#1 897252876#1.54 897252876#3 897252876#4 45344320#2 -45344329#7 -45344329#6 -951381435 -45344331#2 -45344331#1 -45344331#0 45344326#3 -897172091#6 -951404496 -951404496.25 -951404496.29 -951404496.31 -951404496.34 -951404496.36 -897252883#0 -897252883#0.7 -897172091#1 -897172091#0 -45344294#6 -45344294#6.9 -45344294#6.25 -45344294#5 -45344294#5.7 -951370959 -951370959.20 -951370959.22 -951370959.23 -951370959.27 -951370959.28 -951370959.29 -951370959.30 -951370959.31 897252858#0 897252858#1 897252858#2 897252858#3 -45344286#12 -45344286#11 951404497 951404497.20 951404497.26 951404497.33 951404497.38 951404497.43 -897252855#0 -45344287#0 -45344287#0.5 -45344287#0.14 -951384608#1 -951384608#1.59 -951384608#1.63 -951384608#1.67 -951384608#1.69 -951384608#1.73 -951384608#0 -951384608#0.43 -951384608#0.47 -951384608#0.50 -951384608#0.52 -702632123#1 -702632123#1.4 -702632123#0 45344272#13 45344272#13.4 45344272#13.35 45344298 896892974 971495602#11 971495602#12 971495602#12.26 971495602#12.77 951442813 951442812#0 -896786335#50 -896786335#49 -896786335#48 -896786335#48.15 -896786335#47 -896786335#46 -896786335#44 -896786335#44.9 -896786335#44.71 -896786335#43 -896786335#42 -896786335#42.22 -896786335#41 -896786335#40 -896786335#39 -896786335#39.27 -896786335#37 -896786335#36 -896786335#34 -896786335#33 -951354773#3 -951354773#3.20 -951354773#3.23 -951354773#3.26 -951354773#3.28 -951354773#3.30 -951354773#3.32 -951354773#3.34 -951354773#3.38 -951354773#3.40 -951354773#3.43 -951354773#3.45 -951354771#1 -951354771#0 896893028#5 -896786335#29 -896786335#29.17 -896786335#28 -896786335#27 -896786335#27.19 -896786335#26 -951995494#1 -951995491#2 -951995491#1 -951995491#0 896786266#13 896786266#13.14 -896786335#21 -896786335#21.41 -896893011#1 -896893012#6 -896893012#6.12 -896893012#5 -896893012#5.11 -896893012#4 -896893012#3 -896893012#2 -896893012#2.9 896786300#3 896786300#3.17 -896786335#14 -896786335#14.27 -896786335#13 -951983587#9 -951983587#8 -951983588#1 -951983588#0 -951983586#0 -896786303#0 -896786311#12 -896786311#12.40 -951976011#1 -951976011#0 896786321#2 -896786320#3 -896786320#3.5 -896786320#1 -896786320#0 896786315#2 951976006#0 -951976008 896786319#2 896786319#4 896786317#2 896786317#2.28 896786317#3 896786317#3.44 -896786335#3 -896786335#3.10 -896786335#2 -896786335#1 -896786335#1.14 -896786335#0 -951946803#2 951946816#14 951946795#0 951946795#0.4 951946795#0.7 951946795#0.9 951946795#1 951946795#2 951946795#3 951946795#4 951946795#6 951946795#7 951946795#9 951946795#10 951946795#11 951946795#11.34 951946795#11.40 951946795#11.45 -951887683 -951887684 -951887682#6 951887695#5 671756019#0 -951961251#1 -951961251#0 -876509484#7 -876509484#7.6 -876509484#7.25 -876509484#6 -876509484#6.3 -876509484#6.8 -876509484#6.12 -876509484#6.15 951878264#0 951878264#0.74 951878264#2 -951878263#3 -951878266#4 -951878266#4.37 -951878266#2 -951878266#1 -951878266#1.39 -951878266#1.47"/>
</vehicle>
<vehicle id = "veh14" type= "veh_passenger" depart="14420" >
<route edges =" -45342801#4 45342799#23 45342799#25 45342799#25.7 45342799#25.22 45342799#26 45342799#27 45342799#27.15 45342799#27.20 45342799#27.25 45342799#27.36 -951370987 -951370987.52 -951370987.54 -951370987.56 -951370987.57 -951370987.59 -951370987.62 -903341083#2 -903341083#1 -951368605#2 -951368605#1 -951368605#0 45342811#1 45342811#2 45342811#2.66 -45344273#22 -45344273#22.6 -45344273#22.18 -45344273#22.35 -45344273#21 -45344273#21.28 -45344273#19 -45344273#18 -45344273#18.17 -45344273#17 -45344273#17.20 -45344273#17.31 -45344273#16 -45344273#16.5 -45344273#16.30 -45344273#14 -45344273#14.32 -45344273#13 -45344273#12 -45344273#11 -45344273#10 -45344273#10.42 -45344273#9 -45344273#8 -45344273#8.10 -45344273#7 -45344273#7.22 -45344273#6 -45344273#6.40 -45344273#6.59 -45344273#5 -45344273#5.6 -45344273#5.15 -45344273#4 -45344273#4.8 -45344273#4.37 -45344273#3 -45344273#3.6 -45344273#3.14 -45344273#3.31 -45344273#3.48 -45344273#2 -45344273#2.6 -45344273#2.24 -45344273#1 -45344273#1.7 -45344273#0 -897252881 -45378637#10 45378639#7 -951404483#2 -951404484#9 -951404484#9.20 -951404484#8 -951404484#6 -951404484#5 -951404484#4 -951404484#4.8 -951404484#4.11 -951404484#4.13 -951404484#4.15 -951404484#3 -951404484#3.5 -951404484#3.9 -951404484#3.14 -951404484#3.25 -951404484#3.32 -951404484#2 -951404484#2.19 -951404484#2.23 -951404484#2.26 -951404484#2.29 -951404484#0 -951404484#0.3 -951404484#0.6 -951404484#0.11 -951404484#0.38 -45344310#0 -45344310#0.10 -45344310#0.18 -45344310#0.30 -45344310#0.41 -45344310#0.52 971495602#8 971495602#8.24 971495602#8.86 -313316104#6 -313316104#5 -313316104#5.12 -313316104#5.27 -313316104#5.46 -313316104#4 -313316104#4.4 -313316104#4.18 -313316104#4.31 -313316104#4.41 -313316104#4.56 -313316104#3 -313316104#2 -313316104#2.13 -313316104#2.35 -313316104#2.44 -313316104#1 -313316104#0 -313316082 -45378649#12 896786296#0 -951355298#2 -951355298#2.7 -951355298#2.9 -951355298#2.11 -951355298#2.15 -951355298#2.38 -951355298#2.43 -951355298#1 -951355298#1.5 -951355298#1.10 -951355298#0 -951355298#0.4 -951354759#1 -951354759#1.6 -951354759#0 -951354759#0.4 -951354759#0.15 -951354759#0.20 -951354759#0.24 -45378649#5 -45378649#5.24 -45378649#5.57 -45378649#5.68 -45378649#3 -45378649#3.8 -45378649#2 -45378649#2.8 951354763#0 951354763#1 951354763#2 951354763#3 951354763#4 951354763#5 951995492#1 -896786265#0 896786266#11 896786266#11.13 909024250#0 909024250#1 909024250#2 909024250#4 909024250#5 909024250#6 909024239#0 909024239#1 909024239#1.17 909024239#2 909024239#2.40 -951983585 -951975994 -896786325#2 -896786328#1 -896786328#0 -896786328#0.177 -877395784#20 -877395784#19 -951946816#15 -951946816#14 -951946816#13 -951946816#13.3 -951946816#13.8 -951946816#12 951946833#1 951946833#2 951946833#3 -951946817#5 -951951636 951951635#2 -951946806#8 951951629 -951951630 -951946806#1 -951946806#1.48 -951946806#1.55 -951946806#1.61 -951946806#1.69 -951946806#1.82 -951946806#1.90 -951946806#1.98 -951946806#0 -952365020 -952365021 -951878231#2 -951878231#1 -951878231#1.26 -951878231#0 951951645 -951951643#3 -951951643#2 -951951643#1 951951648#0 951951649 -951878263#6 -951878263#5 -951878269#15 -951878269#14 -951878269#13 -951878269#12 -951878269#10 -951878269#9 -951878269#7 -951891764#4 -951887656#2 951891765#1 951891765#2 951891765#3 -951887660#3 -951887660#2 -951887663#3 951887661#3 951878266#0"/>
</vehicle>
<vehicle id = "veh15" type= "veh_passenger" depart="18025" >
<route edges =" 951370989 951370989.40 951370989.47 951370989.53 951370989.56 951370989.62 951370989.64 951370989.67 -902433320#1 -902433320#0 902433321#2 -45342799#20 -45342797#4 -45342797#3 -45342797#2 -45342797#1 -45342797#0 -45342834#1 -45342834#0 44740902#8 -45342798#6 45342813#0 45342813#1 45342813#2 -45342814#1 44740902#11 44740902#12 44740902#13 44740902#14 44740902#14.81 44740902#14.94 -874839172#0 -44740943 -313316091#20 951438760#0 -672215964 672215965#1 -44740922#0 -313316091#16 -313316091#14 -313316091#14.20 -313316091#12 -313316091#11 -313316091#10 -313316091#10.31 -313316091#8 -313316091#8.29 -44739167#15 -44739167#15.17 44740949#0 44740949#1 44740949#2 -44739163#19 -44740918#2 -44740918#1 -44740918#0 44740920#6 -951358792 -951358792.26 -951358792.42 -951358792.53 -951358792.66 896892969#18 -971495601#9 -971495601#9.28 44740934#0 -668599375#2 -668599375#2.17 -668599375#1 -668599375#1.9 -668599375#0 -909019783 -909019783.98 -971495601#3 -971495601#1 -971495601#0 -313316086 -44739144#26 -44739144#24 909024272#0 909024272#0.29 909024272#1 909024272#1.30 909024272#1.53 909024271#1 -896786294#10 -896786294#8 -909024279#5 -909024279#5.21 -909024280#1 -909024280#1.18 -909024280#0 896786295#12 896786295#12.9 896786295#13 -896786294#5 -896786294#5.6 -896786294#5.10 -896786294#5.13 -896786294#5.16 -896786294#5.19 -896786294#5.22 -896786294#4 -896786294#3 -896786294#3.26 951992347 -896786277#2 -896786277#0 -877398366#15 -877398366#15.29 -904286380#3 -904286380#3.41 -904286380#2 -904286380#1 -904286380#1.6 -904286380#1.33 -904286380#0 -951992355 -904286385#10 -904286385#9 -904286385#8 -904286385#6 -904286385#5 -904286385#5.9 -904371490#4 -904371492#6 -904371456#3 -904371456#2 -904371456#2.22 -904371456#1 -904371456#0 -904371456#0.17 -671191680#0 -671191680#0.38 -671191680#0.44 -671191680#0.48 -671191680#0.53 -671191680#0.58 -671191680#0.63 -671191680#0.76 -896786327#0 -877395784#21 -877395784#21.14 -951951638#10 -951951638#10.18 951973434#1 951951639#3 951951639#4 -951973432#1 -951951638#7 -951951638#5 -951951638#4 -951951638#3 952000398 951951639#13 -951946794#0 951946792#1 896786337#8 896786337#8.8 896786337#10 896786337#10.21 -951887700#20 -951887700#19 -951887700#18 -951887700#17 -951887700#17.17 -951887700#16 -951887700#15 -951887700#14 -951961240#3 -951961240#1 -951961245 951891772#0 951891772#1 -951891774 -951891771#1 -951891771#0"/>
</vehicle>
<vehicle id = "veh16" type= "veh_passenger" depart="18025" >
<route edges =" 45342801#5 45342801#5.32 902433317#3 902433317#4 902433317#6 902433317#7 902433317#8 902433317#8.29 951368593#1 972507120#2 972507120#3 -951369746#4 -951369746#4.24 -951369746#4.27 -951369746#4.29 951369745#0 -951381440 -951369738 -951369738.5 -951369738.18 -951369738.24 -951369738.31 -951369741#2 -951369741#2.8 -951369741#2.11 -951369741#2.13 -951369741#2.16 -951369741#2.19 -951369741#2.22 -951369741#1 -951369741#1.20 -951369741#1.25 -951369741#1.30 -45344273#26 897252876#0 897252876#0.16 897252876#0.57 897252876#1 897252876#1.54 897252876#3 897252876#4 45344320#2 -45344329#7 45344327#0 -45344331#3 -45344331#2 -45344331#1 952274660 952274660.29 952274660.31 952274660.34 951404486#1 45344326#2 45344326#2.16 45344326#3 699875133 699875130#1 -897252883#1 -897252883#0 -897252883#0.7 -897172091#1 -897172091#0 -45344294#6 -45344294#6.9 -45344294#6.25 -45344294#5 -45344294#5.7 -45344294#4 -45344294#4.7 -45344294#4.18 -45344294#3 897252857 897252858#2 897252858#3 -45344286#12 -45344286#11 -45344286#9 -45344286#9.15 -45344286#9.41 -45344286#9.67 -45344286#8 -45344286#7 -702632122#4 -702632122#4.41 -702632122#4.57 -702632122#4.62 -702632122#4.67 -702632122#4.71 -702632122#4.73 -702632122#4.77 -702632123#3 -702632123#2 -702632123#1 -702632123#1.4 -702632123#0 45344272#13 45344272#13.4 45344272#13.35 45344298 896892974 971495602#11 971495602#12 971495602#12.26 971495602#12.77 951442813 951442812#0 -896786335#50 -896786335#49 -896786335#48 -896786335#48.15 -896786335#47 -896786335#46 951358828 951358828.11 951358828.13 951358828.16 951358828.19 951358828.22 951358828.26 951358828.29 951358828.32 951358828.42 951358828.46 951358828.50 951358828.53 951358828.57 -896786247#8 -908869236 -908869236.10 -908869236.25 -908869236.28 -908869236.31 -908869236.34 -908869236.36 -908869236.38 -908869236.41 -908869236.82 -908869236.85 -908869236.89 -908869236.92 -908869236.95 -908869236.97 -908869236.100 -896786335#43 -896786335#42 -896786335#42.22 -896786335#41 -896786335#40 -896786335#39 -896786335#39.27 -908869251 -908869251.5 -908869251.7 -908869251.10 -908869251.12 -908869251.30 -908869251.35 -908869251.40 -908869251.44 -908869251.48 -908869251.66 -908869251.70 -908869251.73 -908869251.76 -908869251.78 896786248#1 896786248#1.30 896786248#1.43 -896786335#34 -908869252#3 -908869252#3.7 -908869252#3.13 -908869252#3.35 -908869252#3.57 -908869252#3.88 -908869252#3.90 -908869252#3.94 -951355291 -951355291.22 -951355291.26 -951355291.31 -951355291.36 -951355291.41 -951355291.50 -951355291.55 -951355291.62 -896786335#31 -896786335#31.22 -896786335#30 -896786335#29 -896786335#29.17 -896786335#28 -896786335#27 -896786335#27.19 -896786335#26 -896786335#24 -896786335#23 -896786335#23.44 -896786335#22 -896786335#21 -896786335#21.41 -896786335#19 -896786335#18 -896786335#17 -896786335#17.2 -896786335#16 -896786335#16.7 -896786335#15 -896786335#14 -896786335#14.27 -896786335#13 877398366#0 877398366#0.11 -909024237#0 -951983583#0 -951983583#0.24 -951983583#0.28 -951983583#0.32 -951983583#0.38 -877396860#0 -877396860#0.8 -877396860#0.28 -896786335#10 -896786335#10.38 -896786335#9 -896786335#8 -896786335#8.39 -896786335#7 -896786335#6 -896786335#4 -896786335#4.18 -896786335#3 -896786335#3.10 -896786335#2 -896786335#1 -896786335#1.14 -896786335#0 877395784#17 877395784#17.13 877395784#17.29 -951946816#15 951946795#0 951946795#0.4 951946795#0.7 951946795#0.9 951946795#1 951946795#2 951946795#3 951946795#4 951946795#6 951946795#7 951946795#9 951946795#10 951946795#11 951946795#11.34 951946795#11.40 951946795#11.45 -951887683 -951887684 -951887682#6 -951887682#5 951887686#0 951887686#1 -671756019#4 -951961235 951961234#1 -951878265#2 951878263#1 951878263#1.39 951878263#1.46 951878263#1.53 951878263#1.72 951878263#1.75 951878263#2 951878263#2.2 -951878266#4 -951878266#4.37 -951878266#2 -951878266#1 -951878266#1.39 -951878266#1.47"/>
</vehicle>
<vehicle id = "veh17" type= "veh_passenger" depart="18025" >
<route edges =" -45342801#4 45342799#23 45342799#25 45342799#25.7 45342799#25.22 45342799#26 45342799#27 45342799#27.15 45342799#27.20 45342799#27.25 45342799#27.36 972507120#0 -903341083#3 -903341083#2 -903341083#1 -951368605#2 -951368605#1 -951368605#0 45342811#1 45342811#2 45342811#2.66 -45344273#22 -45344273#22.6 -45344273#22.18 -45344273#22.35 -45344273#21 -45344273#21.28 -45344273#19 -45344273#18 -45344273#18.17 -45344273#17 -45344273#17.20 -45344273#17.31 -45344273#16 -45344273#16.5 -45344273#16.30 -45344273#14 -45344273#14.32 -45344273#13 -45344273#12 -45344273#11 -45344273#10 -45344273#10.42 -45344273#9 -45344273#8 -45344273#8.10 -45344273#7 -45344273#7.22 -45344273#6 -45344273#6.40 -45344273#6.59 -45344273#5 -45344273#5.6 -45344273#5.15 -45344273#4 -45344273#4.8 -45344273#4.37 -45344273#3 -45344273#3.6 -45344273#3.14 -45344273#3.31 -45344273#3.48 -45344273#2 -45344273#2.6 -45344273#2.24 -45344273#1 -45344273#1.7 -45344273#0 -897252881 -45378637#10 45378639#7 -951404483#2 -951404484#9 -951404484#9.20 -951404484#8 -951404484#6 951404482 45378639#9 45378639#10 45378639#11 45378639#12 45378639#12.8 -45344310#1 -45344310#0 -45344310#0.10 -45344310#0.18 -45344310#0.30 -45344310#0.41 -45344310#0.52 971495602#8 971495602#8.24 971495602#8.86 45340579#6 -908560887#8 -908560887#8.9 -908560887#8.22 -908560887#8.29 -908560887#8.34 -908560887#8.39 -908560887#8.43 -908560887#8.49 -908560887#8.57 -908560887#8.62 -908560887#8.67 -908560887#8.71 -908560887#7 -908560887#7.10 -908560887#7.18 -908560887#7.26 -908560887#7.31 -908560887#7.34 -908560887#7.37 -908560887#6 -908560887#6.10 -908560887#6.22 -908560887#6.25 -908560887#6.28 -908560887#6.33 -908560887#6.42 -908560887#6.47 -908560887#6.51 -908560887#6.56 -908560887#6.60 -908560887#6.65 -951435498 -951435498.10 -951435498.17 -951435498.23 -951435499#0 -951435499#0.4 -951435499#0.9 -951435499#0.15 -951435499#0.19 -951435499#0.23 -951435499#0.29 -951435499#0.33 -951435499#0.37 -951435499#0.41 -951347804#0 -951347804#0.1 -951347804#0.6 -951347804#0.20 -951347804#0.28 -951347804#0.33 -951347804#0.39 -45378651#0 -45378651#0.20 -313316104#1 -313316104#0 -313316082 -45378649#12 -45378649#11 -45378649#11.22 -45378649#10 -45378649#10.20 -45378649#9 -45378649#9.7 -45378649#7 -45378649#7.4 -45378649#5 -45378649#5.24 -45378649#5.57 -45378649#5.68 -45378649#3 -45378649#3.8 -896786265#8 -896786265#7 -896786265#7.11 -896786265#6 -896786265#6.26 -896786265#5 -896786265#4 -896786265#4.59 -896786265#2 -896786265#0 909024253#0 951995490#0 951995490#1 951995490#1.10 951995490#1.14 951995490#1.17 951995490#1.20 909024250#2 909024250#4 909024250#5 909024250#6 909024239#0 909024239#1 909024239#1.17 909024239#2 909024239#2.40 -951983585 -951975994 -896786324#1 -896786324#0 -896786324#0.19 -896786324#0.132 -896786324#0.177 -877395784#19 -877395784#17 -877395784#17.8 -877395784#17.24 -877395784#15 -877395784#14 -877395784#14.13 951946817#0 -951946816#10 -951946823 -951946821#0 -951946821#0.2 -951946821#0.6 -951946821#0.9 -951946818#2 -951946818#0 951946833#9 951946833#9.22 951946833#11 951946833#11.92 951946833#11.95 951946833#11.98 951946833#11.101 -951946806#0 -952365020 -952365021 -951878231#2 -951951643#6 -951951643#5 -951951643#4 -951951643#3 -951951646 -951951642#2 -951951642#1 -951951648#1 951951649 951878263#7 951878263#8 951878230#4 -951891772#4 -951961237 951891766#3 -951878269#10 -951930613 951878270#2 951878270#3 951878270#4 -951891764#2 -951891764#1 -951891764#0 -951887660#0 877401978#1 951878266#0"/>
</vehicle>
<vehicle id = "veh18" type= "veh_passenger" depart="21630" >
<route edges =" 951370989 951370989.40 951370989.47 951370989.53 951370989.56 951370989.62 951370989.64 951370989.67 -902433320#1 -902433320#0 902433321#2 -45342799#20 -45342797#4 -45342797#3 -45342797#2 -45342797#1 -45342797#0 -45342834#1 -45342834#0 44740902#8 44740902#9 44740902#9.47 44740902#10 44740902#10.9 44740902#11 44740902#12 44740902#13 44740957#4 -671399051#1 -671399051#0 44740942#2 44740942#2.58 -874839172#0 -44740943 -313316091#20 -313316091#19 -313316091#18 -313316091#18.26 -313316091#17 -313316091#16 -313316091#14 -313316091#14.20 -313316091#12 45378690#0 45378690#0.38 45378690#1 -45378689#2 -45378689#1 -45378682#1 -45378682#0 -45378682#0.30 -313316091#8 -313316091#8.29 -313316091#6 -313316091#5 -313316091#5.44 -313316091#4 -313316091#4.67 -44739163#20 -44740919#1 -44740919#0 -951358792 -951358792.26 -951358792.42 -951358792.53 -951358792.66 896892969#18 -971495601#9 -971495601#9.28 -971495601#8 -971495601#7 -971495601#6 -971495601#5 -971495601#3 -971495601#1 -971495601#0 -313316086 -44739144#26 -44739144#24 909024272#0 909024272#0.29 909024273#0 909024273#0.33 909024273#1 -909024277#3 -909024277#2 -909024277#2.4 -909024277#2.29 -909024277#1 -909024277#1.20 -909024277#0 909024279#4 909024279#4.20 -909024280#1 -909024280#1.18 -909024280#0 896786295#12 896786295#12.9 896786295#13 -896786294#5 -896786294#5.6 -896786294#5.10 -896786294#5.13 -896786294#5.16 -896786294#5.19 -896786294#5.22 -896786294#4 -909024256#1 -909024256#1.22 -909024256#1.80 -896786277#3 -896786277#2 -896786277#0 -896786290#5 -896786290#4 -896786290#4.18 -896786290#3 -896786290#2 -896786290#1 -896786290#1.17 -896786290#0 -904286385#12 904286375#0 904286375#1 904286373#0 904286373#1 904286373#2 904286373#2.10 904286371 -671191680#6 -671191680#5 -951973470#1 -951973470#1.3 -951973470#1.6 -951973470#1.10 -951973471#4 -904371456#2 -904371456#2.22 -951973471#1 -951973471#0 -671191680#1 -671191680#1.13 -671191680#0 -671191680#0.38 -671191680#0.44 -671191680#0.48 -671191680#0.53 -671191680#0.58 -671191680#0.63 -671191680#0.76 -896786327#0 -877395784#21 -877395784#21.14 -951951638#10 -951951638#10.18 951973434#1 951951639#3 951951639#4 -951973432#1 -951951638#7 -951951638#5 -951951638#4 -951951638#3 -951951638#2 -951946794#1 -951946794#0 951946792#1 896786337#8 896786337#8.8 896786337#10 896786337#10.21 -951887700#20 -951887700#19 -951887686#1 -951887686#0 -951887682#4 951887687#0 951887687#0.26 951887687#1 951887687#1.5 951887687#1.11 -951887700#15 -951961243 -951961242#0 -951961240#1 -951961245 951891772#0 -951891773 -951891771#0"/>
</vehicle>
<vehicle id = "veh19" type= "veh_passenger" depart="21630" >
<route edges =" 45342801#5 45342801#5.32 902433317#3 902433317#4 902433317#6 902433317#7 902433317#8 902433317#8.29 902433317#9 951368594#0 951368594#1 951368594#2 972507120#3 -951369746#4 -951369746#4.24 -951369746#4.27 -951369746#4.29 951369745#0 951369745#1 951369745#1.13 951369745#1.18 951369745#2 951369745#2.2 951369745#2.14 951369745#2.20 951369745#2.26 -951369735 -951369735.5 -951369735.10 -951369735.15 -951369735.24 -951369735.30 -951369735.36 -951369740#1 -951369740#1.11 -951369740#1.14 -951369740#1.18 -951369740#1.22 -951369740#1.28 -951369740#1.32 -951369740#1.36 -951369740#1.40 -951369740#1.44 -951369740#1.64 -951369740#0 -951369740#0.4 -951369740#0.11 45344273#27 45344273#27.17 -897252875#3 -897252875#2 -897252875#2.29 -897252875#0 -897252875#0.4 -897252875#0.15 -897252875#0.35 -45344336#9 -45344336#9.10 -45344336#9.61 -45344336#9.126 -45344336#9.147 -45344336#8 -45344336#8.20 -45344336#8.27 -45344336#8.33 -45344335#8 45344320#7 45344320#7.38 45344320#7.55 45344320#7.60 45344320#7.63 45344320#7.67 45344320#7.80 45344320#7.86 950235691#2 950235691#2.4 -45344335#5 -903341090 -897172091#10 -897172091#9 -897172091#8 -897172091#6 -897172091#5 -897172091#4 -897172091#3 -897172091#1 -897172091#0 -45344294#6 -45344294#6.9 -45344294#6.25 -45344294#5 -45344294#5.7 -951370959 -951370959.20 -951370959.22 -951370959.23 -951370959.27 -951370959.28 -951370959.29 -951370959.30 -951370959.31 897252858#0 897252858#1 897252858#2 -897252852#6 -897252852#6.26 -897252852#5 -897252852#3 -897252853 45344304#2 45344304#2.14 45344304#3 45344304#3.13 -45344286#12 -45344286#11 -45344286#9 -45344286#9.15 -45344286#9.41 -45344286#9.67 -45344286#8 -951384608#1 -951384608#1.59 -951384608#1.63 -951384608#1.67 -951384608#1.69 -951384608#1.73 -951384608#0 -951384608#0.43 -951384608#0.47 -951384608#0.50 -951384608#0.52 -702632123#1 -702632123#1.4 -702632123#0 45344272#13 45344272#13.4 45344272#13.35 45344298 896892974 971495602#11 971495602#12 971495602#12.26 971495602#12.77 951442813 951442812#0 -896786335#50 -896786335#49 -896786247#9 -896786247#9.8 -896786247#9.17 -896786247#9.75 -896786247#9.157 -896786247#8 -896786247#7 -896786247#7.2 -908869249#2 -908869249#2.8 -908869249#2.14 -908869249#2.28 -908869246 -908869247 -908869248#2 -908869248#1 -908869248#1.4 -908869248#1.6 -908869248#1.9 -908869248#1.11 -908869248#1.19 -951358827#2 -951358826 -951358826.10 -951358826.13 -951358826.16 -951358826.19 -951358826.36 -951358826.40 -951358826.44 -951358826.49 -896786335#42 -896786335#42.22 -896786335#41 -896786335#40 -896786335#39 -896786335#39.27 -896786335#37 -896786335#36 -896786335#34 -896786335#33 -896786335#32 -896786335#32.17 -896786335#31 -896786335#31.22 -896786335#30 -896786335#29 -896786335#29.17 -896893017#1 -896893018#1 -896893018#1.27 -896893018#0 877388728#14 -896786335#24 -896786335#23 -896786335#23.44 -896786335#22 -896786335#21 -896786335#21.41 -896786335#19 -951995495 -909024243#0 -909024244#0 -896786335#17 -896786335#17.2 -896786335#16 -896786335#16.7 -896786335#15 -896786335#14 -896786335#14.27 -896786335#13 -896786335#12 -896786335#12.15 -896786335#11 -896786335#10 -896786335#10.38 -896786335#9 -896786335#8 -896786335#8.39 -896786335#7 -896786335#6 -896786335#4 -896786335#4.18 -896786335#3 -896786335#3.10 -896786335#2 -896786335#1 -896786335#1.14 -896786335#0 -951946803#2 -951946803#1 -951946803#1.55 -951946803#1.59 -951946803#1.61 -951946803#1.64 951946795#1 951946795#2 -951946801 951951639#6 951951639#7 951951639#8 951951639#9 951951639#10 951951639#11 951946796#0 951946804 951946804.28 951946804.31 951946804.34 951946804.37 951946795#11 951946795#11.34 951946795#11.40 951946795#11.45 -951887683 -951887684 -951887682#6 -951887682#5 951887686#0 951887686#1 -671756019#4 -671756019#3 951961253 951961253.63 951961253.68 951961253.73 951961233#1 -951878265#2 -951878265#1 -951878266#5 -951878266#5.22 -951878266#5.29 -951878266#5.37 -951878266#4 -951878266#4.37 -951878266#2 -951878266#1 -951878266#1.39 -951878266#1.47"/>
</vehicle>
<vehicle id = "veh20" type= "veh_passenger" depart="21630" >
<route edges =" -45342801#4 45342799#23 45342799#25 45342799#25.7 45342799#25.22 45342799#26 45342799#27 45342799#27.15 45342799#27.20 45342799#27.25 45342799#27.36 972507120#0 -903341083#3 -903341083#2 -903341083#1 -951368605#2 -951368605#1 -951368605#0 45342811#1 45342811#2 45342811#2.66 -45344273#22 -45344273#22.6 -45344273#22.18 -45344273#22.35 -45344273#21 -45344273#21.28 -45344273#19 -45344273#18 -45344273#18.17 -45344273#17 -45344273#17.20 -45344273#17.31 -45344273#16 -45344273#16.5 -45344273#16.30 -45344273#14 -45344273#14.32 -45344273#13 -45344273#12 -45344273#11 -45344273#10 -45344273#10.42 -45344273#9 -45344273#8 -45344273#8.10 -45344273#7 -45344273#7.22 -951384596#1 -951384596#1.24 -951384596#1.31 -951384596#1.36 -951384596#1.46 -951384596#1.54 -951384596#1.60 -951384596#1.72 -951384596#1.107 -951417467 -951417467.14 -951417467.15 -951417467.17 -951417467.18 -951417467.21 -951417467.23 -951417467.24 -951417467.25 951384598#2 -951384597 -951384597.29 -951384597.36 -951384597.43 -45344273#3 -45344273#3.6 -45344273#3.14 -45344273#3.31 -45344273#3.48 -45344273#2 -45344273#2.6 -45344273#2.24 -45344273#1 -45344273#1.7 -45344273#0 -897252881 -45378637#10 -45378637#9 -951404484#10 -951404484#9 -951404484#9.20 -951404484#8 -951404484#6 -951404484#5 951404481 45378639#10 45378639#11 -951404475 -951404475.33 -951404475.43 -951404476 -951404476.16 -951404476.32 -951404476.50 -951404476.59 -951404476.68 -951404476.84 -951404476.93 -951404476.101 -951404476.106 -951404476.113 971495602#7 971495602#7.32 971495602#7.56 971495602#8 971495602#8.24 971495602#8.86 -313316104#6 -313316104#5 -313316104#5.12 -313316104#5.27 -313316104#5.46 -313316104#4 -313316104#4.4 -313316104#4.18 -313316104#4.31 -313316104#4.41 -313316104#4.56 -313316104#3 -313316104#2 -313316104#2.13 -313316104#2.35 -313316104#2.44 -313316104#1 -313316104#0 -313316082 -45378649#12 -45378649#11 -45378649#11.22 -45378649#10 -45378649#10.20 -45378649#9 -45378649#9.7 -45378649#7 -45378649#7.4 -45378649#5 -45378649#5.24 -45378649#5.57 -45378649#5.68 -45378649#3 -45378649#3.8 -896786265#8 -896786265#7 -896786265#7.11 -896786265#6 -896786265#6.26 -896786265#5 -951358820 -951358820.17 -951358820.20 -951358820.22 -951358820.25 -951358820.28 -951358820.45 -951358820.48 -951358820.50 -951358820.53 -951358821#1 -951358821#0 -951358821#0.3 -951358821#0.6 -951358821#0.9 -951358822#0 -951358822#0.4 -951358822#0.8 -951358822#0.13 -896786265#2 -896786265#0 909024253#0 951995490#0 951995490#1 951995490#1.10 951995490#1.14 951995490#1.17 951995490#1.20 909024250#2 909024250#4 909024250#5 909024250#6 909024239#0 909024239#1 909024239#1.17 909024239#2 909024239#2.40 877398366#3 951995475#4 904371460#5 877396860#4 904371465#0 904371465#1 904371465#2 904371464 896786325#1 -896786328#1 -896786328#0 -896786328#0.177 -877395784#20 -877395784#19 -951946816#15 -951946816#14 -951946816#13 -951946816#13.3 -951946816#13.8 -951946816#12 951946833#1 951946833#2 951946833#3 -951946817#5 -951946817#4 -951946818#3 -951946818#3.18 -951946818#3.21 -951946818#2 -951946806#8 951951629 -951951630 -951946806#1 -951946806#1.48 -951946806#1.55 -951946806#1.61 -951946806#1.69 -951946806#1.82 -951946806#1.90 -951946806#1.98 -951946806#0 -952365020 -952365021 -951878231#2 -951951643#6 -951951643#5 951868611#0 -951878231#0 951951645 -951951643#3 -951951643#2 -951951643#1 951951648#0 951951648#1 -951951642#0 -951878263#5 -951878269#15 951891772#3 -951961237 951891766#3 951878270#0 951878270#0.33 951878270#0.36 951878270#0.39 951878270#0.42 951878270#2 877401978#0 877401978#1 951878266#0"/>
</vehicle>
</routes>
