<?xml version="1.0" encoding="UTF-8"?>
<routes xmlns:xsi="http: // www.w3.org/2001/XMLSchema-instance" xsi:noNamespaceSchemaLocation="http: // sumo.dlr.de/xsd/routes_file.xsd">
<vType id="veh_passenger" vClass="passenger"/>

<vehicle id = "veh0" type= "veh_passenger" depart="0" >
<route edges =" -813722269#3 -813722269#3.7 -813722269#3.48 -813722269#3.84 -813722269#3.86 620762213#0 620762213#0.9 620762213#0.88 620762212#0 620762212#0.8 620762212#0.52 6343949#6 6343949#7 6343949#8 6343949#8.52 6343949#10 6343949#10.49 6343949#12 6343949#12.47 -525497324#3 -525497324#2 243349944#4 243349944#4.53 243349944#6 243349944#7 -460419011#3 -460419011#2 6464126#3 6464126#3.49 6464126#5 -460419028#3 243349338#0 243349338#0.18 243349338#1 243349338#2 243349338#3 243349338#3.49 243349338#5"/>
</vehicle>
<vehicle id = "veh1" type= "veh_passenger" depart="0" >
<route edges =" -6457203#16 -6457203#16.59 975126260#0 975126260#0.49 -6505136#16 6368504#5 6368504#5.48 6368504#7 6368504#7.50 -6513783#8 -6513783#7 37657905#3 37657905#3.48 37657905#5 37657905#5.10 37657905#5.46 37657905#7 37657905#7.49 476409329 -6383185#5 6384373#1 6384373#2 6384373#2.45 6384373#2.56 -65588097#1 -65588097#1.119 337818330 6463035#0 6463035#0.14 6463035#0.38 6463035#3 -6495801#0 -185485132#12 -185485132#12.125 -185485132#11 -185485132#11.16 243349945#9 243349945#9.50 -6494975#8 -6494975#7 -6494975#6 -6494975#6.81 256994205#3 428246847#0 428246847#0.8 428246847#0.22 6386110#0 6386110#0.16 6386110#0.25 6386110#0.55 -243349338#6 -243349338#6.14"/>
</vehicle>
<vehicle id = "veh2" type= "veh_passenger" depart="0" >
<route edges =" -6522868 -6403883#7 -6403883#6 -6403883#5 -6403883#4 -6403883#3 -6403883#2 158882505#7 158882505#8 8111709#0 8111709#0.47 8111709#2 8111709#2.49 8111709#4 8111709#4.49 -6513783#5 6384359#8 6384359#9 6384359#9.26 -6381494#3 -6381494#3.43 6463017#6 6463017#6.48 -6386837#0 337739268 337739268.124 337739267#0 337818462 337818462.3 337818462.6 337739271#1 337739271#1.6 337739269#0 -460419011#4 243349944#8 -801995081#5 -801995081#5.197 -801995081#5.209 -801995081#2 -801995081#2.109 -801995081#0 243339793#4 243339793#5 243339793#6 243339793#6.50 243339793#6.74 -22917112 -185485118#1 6514312#0 6514312#0.70 -6523501#6 -6523501#6.6 185485127#1 -6494970#4 -6494970#4.172 -6494970#2 -6494970#2.4 -6494970#2.100 6358721#0 6358721#0.9 6415147#4 6415147#5 6415147#6 6351349#2 6351349#3 6351349#3.107 6351349#5 -185483733 -6414318#4 -157167355#0"/>
</vehicle>
<vehicle id = "veh3" type= "veh_passenger" depart="0" >
<route edges =" 817434294 817434294.10 817434294.36 817434294.44 817434294.63 817434294.119 6343949#0 6343949#0.7 6343949#0.86 6343949#3 6343949#3.9 6343949#3.49 620762212#3 6430729#6 6430729#6.47 6430729#6.48 6430729#9 6430729#9.48 6430729#11 6430729#11.51 6430729#13 6430729#13.48 6430729#15 6430729#15.48 6430729#17 6430729#17.51 -620762224#0 -66558981#7 -66558981#7.65 -66558981#7.83 -66558981#7.105 -66558981#7.123 -66558981#2 -66558981#2.131 -66558981#2.234 525497323#2 525497323#2.81 -481291488#2 -481291488#1 -481291488#0 -481291488#0.69 -481291488#0.82 -6447971#10 -6447971#10.11 -6447971#9 -6447971#8 -6447971#7 -6447971#6 -6447971#5 -6447971#4 169917351#6 169917351#7 169917351#7.49 169917351#9 169917351#9.48 169917351#9.87 169917351#12 169917351#12.9 169917351#12.42 169917351#12.90 -6360239#3 -6360239#3.6 -6360239#3.69 -6360239#3.102 6487445#0 6487445#0.8 6415147#0 6415147#0.61 6449462#3 6449462#3.7 6449462#3.50 6449462#3.60 6449462#3.72 6449462#3.87 795669782#0 795669782#0.54 795669782#2 6371720#2 6371720#3 157167355#0"/>
</vehicle>
<vehicle id = "veh4" type= "veh_passenger" depart="3605" >
<route edges =" -816616074#1 -816616074#1.10 -816616074#1.14 -816616074#1.119 428341734#4 428341734#4.8 428246439#0 428246439#0.14 428246438#0 428246438#0.8 428246440#0 428246440#0.62 800744529#0 800744529#0.7 800744529#0.52 800744529#0.89 826314455#0 826314455#0.11 826314455#0.39 826314455#0.53 826314455#0.57 826314455#0.65 57883609#3 57883609#3.43 57883609#3.52 57883609#3.60 57883609#3.80 620762214 332092195#0 332092195#0.9 332092195#0.74 -22917111#30 -22917111#30.9 -22917111#30.50 -22917111#30.96 8071900#4 8071900#4.7 8071900#4.49 8071900#4.88 6440348#0 6440348#0.6 6440348#0.84 6440348#0.93 6440348#0.107 6440348#0.114 243349944#0 243349944#0.4 243349944#0.20 243349944#0.49 243349944#4 243349944#4.53 -66558981#2 -66558981#2.131 -66558981#2.234 -6481166#12 -6481166#11 -6481166#11.122 -6481166#11.125 -6481166#10 -6481166#10.6 -6481166#10.8 -6481166#10.120 -6481166#9 -6481166#9.8 486874837#1 486874837#2 486874837#2.47 -460419014 -460419014.67 -6425689#1 -6425689#1.49 -6447971#8 -263669069#0 -6481166#6 6467507#3 -6447971#5 6507809#4 6507809#5 6507809#5.51 6380913#5 6380913#6 6380913#6.41 6380913#10 6380913#10.59 6380913#12 6425675 -460419024#4 -460419024#4.23 -460419024#4.72 -460419024#4.91 -460419024#4.105 -460419024#4.115 353690153#0 353690153#0.8 353690153#0.25 353690153#0.87 6360256#0 6360256#0.104 -243339793#5 -460419028#4 6464126#6 6360256#2 6360256#2.128 243349338#1 -22917113#2 6464126#9 6464126#9.46 -185485132#3 -185485132#3.101 -185485132#2 -185485132#2.8 481291012#2 481291012#2.49 481291012#5 481291012#5.49 6498476 6498476.121 6498476.127 6498476.134 926425193#1 926425193#1.12 926425193#1.24 926425193#1.34 926425191#3 926425191#4 926425191#4.20 6472293#4 6472293#4.162 -8071924#3 -8071924#3.39 -8071924#3.51 -8071924#0 -8071924#0.15 -428246845 -6386110#6 -6386110#6.5 -243339793#14 -243339793#14.51 6494975#1 6494975#1.9 6494975#2 243349338#5"/>
</vehicle>
<vehicle id = "veh5" type= "veh_passenger" depart="3605" >
<route edges =" 6457203#17 6457203#18 6457203#18.8 6457203#18.11 6457203#20 6457203#20.10 6457203#20.25 6457203#20.27 6457203#23 6457203#23.25 6457203#23.175 460423547 6363153#0 -157284449#1 242516209#2 242516209#2.53 37657904 603522175 603522175.101 603522174#0 6368504#7 6368504#7.50 -6513783#8 -170683231#20 -170683231#20.51 -170683231#18 -170683231#18.37 -170683231#18.49 -170683231#15 -170683231#15.34 -170683231#15.47 -170683231#15.61 -791722143#0 -791722143#0.80 -6368504#18 -6368504#18.35 -6368504#18.56 -6368504#18.61 638348589 638348588#0 603522176#6 603522176#6.51 -476409334#0 476409333#0 476409333#0.45 476409333#2 476409333#2.45 -6460085#10 -6460085#10.12 -6460085#10.42 -6460085#8 -6460085#8.39 -6460085#8.66 -6460085#6 -6460085#6.27 -170683231#7 65588097#6 476409332#5 -6448612#8 -170683231#3 6495798#2 6495798#3 6495798#4 6495798#5 6495798#5.42 6522860#11 6522860#11.100 6522860#11.110 -170683288#6 6523125#3 6523125#3.26 6523125#3.40 6523125#3.61 -6349125#3 -6349125#3.8 -6349125#3.20 -6349125#2 -6349125#2.60 -6349125#2.61 -6349125#2.68 -6349125#2.76 -6349125#2.79 -476409332#11 -476409332#11.8 -476409332#10 -476409332#10.10 -476409332#8 -6356667#2 -6356667#1 -6356667#1.147 -6356667#1.181 -428315591#1 -6356671#2 -6356671#2.8 -6356671#2.34 -6356676#2 -6356676#2.14 -6356676#2.25 -6356676#2.40 170683665#3 170683665#3.38 170683665#5 170683665#5.50 170683665#7 6353867#0 40416130#2 6353172#1 6414237#2 6414237#2.7 6414237#2.43 6414237#2.81 -243352868#3 -243352868#3.6 -243352868#1 -243352868#1.19 -6521828#4 -6463035#13 -6463035#13.80 -6353177#3 -6353177#3.7 -6353177#3.98 -6353177#3.134 -336908262#3 -336908262#3.49 -6472289#4 805658294#6 805658294#6.47 -160624558#2 243349945#17 -359671039#6 243349944#26 532125609#2 532125609#3 808266757#0 808266757#0.7 -352434874#3 -352434874#2 243349944#28 -263665040#1 -263665040#1.27 -263665040#1.83 -263665040#1.86 6447445#18 6447445#18.41 6447445#18.62 -243349941#8 878126486#0 878126486#0.41 878126486#0.73 878126486#0.75 -352434868 -352434868.9 352434874#0 -6447445#16 -6447445#15 -6447445#14 -6447445#13 -6447445#13.40 6472289#1 -243349944#22 -243349944#22.50 -22760521#3 -22760521#2 -22760521#2.81 -22760521#2.121 428246847#0 428246847#0.8 428246847#0.22 6386110#0 6386110#0.16 6386110#0.25 6386110#0.55 -243349338#6 -243349338#6.14"/>
</vehicle>
<vehicle id = "veh6" type= "veh_passenger" depart="3605" >
<route edges =" -6457203#16 -6457203#16.59 -6323849#6 -6323849#6.43 -6403883#6 6345333 -6457203#14 -6457203#14.67 -6368504#2 -6368504#2.43 -6469837#4 -6469837#4.19 158882511#9 158882511#9.51 -6457203#11 -6457203#11.20 -6457203#11.36 -6457203#11.44 -6457203#11.89 -6457203#11.100 -158882517#7 -158882517#7.6 -158882517#7.8 -158882517#7.10 -158882517#7.11 -158882517#7.13 -158882517#7.33 -158882517#5 -158882517#4 -158882517#3 6411908#4 158882511#4 160552467#10 160552467#10.81 160552467#10.91 160552467#10.102 -8071379#3 -8071379#3.41 -8071379#1 -8071379#1.46 -6346524#3 -6346524#3.8 -6346524#3.13 -6346524#3.18 -6346524#3.26 -6346524#3.31 -6346524#3.36 -6346524#3.41 -6346524#3.51 -158882511#2 -158882511#2.44 -158882511#0 896104581#0 896104581#0.119 158882558 621283351#0 621283351#0.54 621283351#0.62 428098980#0 428098980#0.10 428098983 428098983.4 428314458 428314461 428098979#0 428098979#0.14 428098978#0 428098978#0.6 428098982 428314470 428314464 428098977 -6346308#11 -6346308#11.43 -6346308#11.48 -6346308#9 -6346308#9.33 -6346308#9.41 6358524#12 8071894#2 8071894#3 8071894#4 8071380#0 8071380#0.4 8071380#0.8 8071380#0.20 8071380#0.54 8071380#0.57 8071380#0.60 8071380#0.63 -158882561#3 61958425 337099385#0 337099385#0.5 337099385#0.11 337099385#1 -6428544#6 -6428544#5 -8071381#1 -8071381#1.135 -8071895#1 -8071895#0 6358515#1 -215404534#2 6348400#1 6348400#1.133 6348400#1.138 6348400#1.140 -6428544#0 -6428544#0.54 -6428544#0.59 -6479772#3 -6479772#3.5 -6479772#3.10 -95193144#1 -95193144#1.50 -95193144#1.55 -95193144#1.90 -6479772#1 -6479772#1.43 215404533 -621088606#1 -621088606#0 -749754758#12 -749754758#12.26 6368518#4 6368518#4.46 -6374789#13 -6346308#5 -6346308#5.48 -6346308#3 -6346308#3.49 -6366765#4 -6368518#1 -6368518#1.50 -6368518#1.97 -6368518#1.99 -6508650#4 -6508650#4.2 -6508650#4.3 -6508650#3 -6508650#3.116 -6508650#3.247 -6508650#3.259 6384350#0 6384350#0.6 6384350#0.52 6384350#0.92 6384350#4 6384350#4.8 6384350#4.48 6384350#4.87 749754758#2 749754758#2.4 749754758#2.121 6464391#13 6464391#13.8 6464391#13.49 6464391#13.91 -6366765#9 -6366765#9.7 -6366765#9.123 6414229#4 6414229#4.5 6414229#4.47 6414229#4.88 6414229#8 6414229#8.3 6414229#8.47 -6374789#10 -6374789#10.121 -6374789#8 -6374789#8.5 -6374789#8.120 6384350#12 6384350#12.6 6384350#12.22 6384350#12.25 6384350#12.26 6384350#12.30 6384350#12.34 6384350#12.43 6384350#12.47 6384350#12.53 6384350#12.55 6384350#12.58 6384350#12.61 6384350#12.70 -6358524#2 -6358524#2.6 -6358524#2.122 -742713664#1 -742713664#1.7 -742713664#1.9 -742713664#1.19 -6358498#1 -6358498#1.87 -6474762#2 -6474762#2.6 -6474762#2.9 -6474762#2.12 6374789#0 6374789#0.39 6374789#0.75 6374789#0.100 -749754754#0 -749754754#0.11 -749754755 -749754755.11 -749754755.23 -749754755.34 -749754755.44 -749754755.57 -749754755.70 -749754755.72 -749754755.82 -749754755.92 -749754755.102 -621088608#1 -621088608#1.7 -621088608#1.12 393047811 -8071579 -6430733#1 -6430733#0 460423542#2 460423542#2.42 460423542#2.44 6368829#0 6368829#0.7 6368829#0.9 6368829#0.12 6368829#0.14 6368829#0.18 6368829#0.59 -256993082#3 -256993082#3.4 -256993082#3.32 -256993082#3.38 -508340468#5 -508340468#5.10 -508340468#5.76 -508340468#2 -508340468#2.20 -508340468#2.58 -460423539#2 -460423539#2.8 -460423539#2.47 -460423539#2.71 65588116#0 65588116#0.12 6343952#0 6343952#0.45 -6511393#7 6415868#2 6415868#2.24 6415868#2.65 6415868#3 6415868#3.71 6461453#6 6461453#6.38 6461453#6.80 6461453#6.92 6461453#6.95 6461453#11 6461453#11.55 6461453#11.69 6461453#11.115 6461453#11.128 6430737#0 6430737#0.47 6430737#0.73 158612542#13 158612542#13.18 158612542#13.36 6474762#5 6474762#5.49 6474762#5.86 428098988#0 428098988#0.8 428098988#0.9 428098988#0.54 428098988#0.75 428246434#0 428246434#0.18 428246435#0 428246435#0.10 428246433 428246433.72 428246432#0 428246432#0.13 171739214#8 171739214#9 171739214#10 171739214#11 171739214#12 171739214#13 171739214#14 171739214#15 171739214#15.31 171739214#15.57 -6403874#2 -6403874#2.90 -6403874#0 171739207#4 171739207#4.40 171739207#4.43 171739207#4.47 171739207#4.50 171739207#4.52 171739207#4.54 171739207#4.77 171739207#4.80 171739207#4.82 171739207#4.85 171739207#4.87 171739207#4.90 171739207#4.113 292812446#0 292812446#0.15 292812446#0.27 292812446#0.70 292812446#0.83 292812446#0.91 292812446#0.121 292812446#5 8071899 6384359#0 6384359#0.22 6384359#0.45 6384359#0.50 6384359#4 6384359#4.13 6384359#4.31 6384359#4.51 6464042#3 6464042#3.16 6464042#3.33 6464042#3.50 6464042#3.56 8111709#4 8111709#4.49 757399066#0 757399066#0.51 757399066#0.87 -6381494#6 -6381494#6.57 -6381494#6.77 -6381494#6.94 -6381494#3 -6381494#3.43 -6381494#1 -6459047 -6459047.72 -6513783#0 292812445#7 292812445#7.46 292812445#9 292812445#9.49 337739268 337739268.124 337739267#0 337739267#1 -481291488#10 -481291488#10.44 -481291488#10.61 -481291488#10.85 -481291488#10.132 -481291488#10.142 -481291488#4 -481291488#4.47 40416132#0 40416132#0.19 460419011#3 243349944#8 -801995081#5 -801995081#5.197 -801995081#5.209 -801995081#2 -801995081#2.109 -6464126#4 -6464126#4.47 -460419011#1 -460419011#1.97 243339793#2 243339793#2.49 243339793#4 -460419028#4 -460419028#3 243349338#0 243349338#0.18 6360256#4 256994205#0 256994205#0.67 22917113#4 22917113#5 22917113#6 243349945#6 243349945#6.48 243349945#6.88 243349945#9 243349945#9.50 -6494975#8 -6494975#7 -6494975#6 -6494975#6.81 -256994205#2 -256994205#2.26 -256994205#2.73 -185485132#6 -185485132#6.52 -185485132#4 6464126#11 6464126#11.50 6464126#13 6464126#13.49 6386110#4 6386110#4.26 243339793#15 243339793#15.46 795671505#0 795671505#0.10 795671505#0.55 795671505#2 243349338#8 243349338#9 359671039#3 -438895608#0 -438895608#0.27 438895607 438895607.119 6447445#14 6447445#15 6447445#16 -352434874#0 -263665039 -263665039.32 -263665039.58 -263665039.72 -6449970#12 -6449970#11 -6464130#3 -6464130#3.41 -359671039#1 6336174#2 6336174#2.43 6336174#4 6506505#5 6464130#5 -243349331#1 -243349331#1.102 -243349331#0 -243349331#0.131 -259277920#2 -259277920#2.56 -259277920#1 -6449970#7 -6449970#7.42 -6449970#5 -6449970#4 -6463541#1 6396312#2 -185485117#2 -185485117#1 -185485117#0 -185485117#0.47 -926425191#3 926425193#2 926425193#2.6 926425193#2.94 926425193#2.182 926425193#2.204 926425193#2.206 336908264#2 336908264#2.29 336908264#3 428247197#0 428247197#0.12 -460421482#10 -460421482#10.13 -460421482#10.46 -460421482#10.56 -460421482#10.76 -460421482#6 -460421482#6.7 -460421482#6.25 -460421482#6.31 -460421482#6.72 6497081#0 6497081#0.8 6415147#3 6415147#4 6415147#5 6415147#6 6351349#2 642753173 6354836#3 6354836#4 6354836#5 6354836#5.54 6354836#7 6354836#7.92 -6467368#3 6367253#0 6367253#0.7 6367253#2 6367253#2.9 6367253#2.121 -6496652#5 -6496652#5.73 -6496652#3 -6496652#3.8 -185483738#8 -185483738#8.6 -185483738#8.58 -185483738#5 -185483738#5.100 -512126022#2 -512126022#2.40 -512126022#2.75 512126021#0 512126021#0.7 512126021#0.31 512126021#0.66 6371720#4 6371720#4.46 6371720#6 -661086629#0 -6351349#5 -256997441#5 -256997441#5.36 -256997441#5.83 14374224#4 14374224#4.44 14374224#4.54 14374224#4.84 14374224#4.122 -6414318#4 -157167355#0"/>
</vehicle>
<vehicle id = "veh7" type= "veh_passenger" depart="3605" >
<route edges =" -813722269#3 -813722269#3.7 -813722269#3.48 -813722269#3.84 -813722269#3.86 569505974#0 569505974#0.10 569505974#0.37 816616073#0 816616073#0.78 813722270#0 813722270#0.7 813722270#0.42 813722270#0.74 813722270#0.75 813722270#0.121 813722270#5 813722270#5.7 813722270#5.118 171739207#0 171739207#0.49 171739207#2 171739207#2.46 -65588100#6 -65588100#6.7 -6430729#8 -6430729#8.48 -6430729#8.49 -620762212#3 6343949#6 6343949#7 8071898#3 179551719 179551719.37 179551719.46 179551719.51 179551719.88 179551719.93 179551719.97 65588093#0 65588093#0.3 65588093#0.6 65588093#0.9 65588093#0.30 6343949#10 6343949#10.49 -6440348#10 -6440348#10.4 -6440348#10.6 -6440348#10.48 -6440348#10.83 -6440348#7 -6440348#7.9 -6440348#5 -6440348#5.15 -6440348#5.21 -6440348#5.35 -6440348#5.44 -6440348#5.122 8071900#8 8071900#8.6 8071900#8.7 8071900#8.49 8071900#8.53 -525497324#0 -6512920#11 -6512920#11.12 -6512920#11.49 -6512920#11.62 -6512920#11.76 -6512920#11.147 -6512920#7 -6512920#7.4 -6512920#7.122 -6512920#7.124 -6464138#11 -6464138#11.9 -6464138#11.48 -6464138#11.90 -6440371#5 -6440371#5.4 -6440371#5.6 -6440371#5.7 -6440371#5.119 -6440371#5.121 -353690154#7 -353690154#7.9 -353690154#7.42 -353690154#7.47 -353690154#7.90 -353690154#3 -353690154#3.8 -353690154#3.49 -353690154#3.91 -893866056#3 -893866056#3.9 -893866056#3.34 -893866056#3.90 353690148#0 353690148#0.9 353690148#0.71 353690148#0.123 -893866060#7 -893866060#7.8 -893866060#7.49 -893866060#7.91 -243338979#20 -243338979#20.7 -243338979#20.121 -243338979#17 -243338979#17.7 -243338979#17.60 -243338979#17.109 -243338979#17.118 -243338979#17.120 486864438#2 486864438#2.6 486864438#2.88 -6476327#20 -6476327#20.8 -6476327#20.163 -6476327#20.182 -6476327#20.195 -6476327#15 -6476327#15.10 -6476327#15.38 -6476327#15.65 -6476327#11 -6476327#10 -6476327#10.8 -6476327#10.86 -6476327#7 -6476327#7.6 -6476327#7.57 -6476327#7.85 -6476327#3 -6476327#3.6 -6476327#3.45 -6476327#3.100 -6476327#3.105 256996971#0 256996971#0.7 256996971#0.23 256996971#0.32 256996971#0.37 256996971#0.85 6458014#0 6458014#0.8 6458014#0.84 22917663#6 22917663#6.6 22917663#6.34 22917663#6.58 22917663#6.88 6506833#5 6506833#5.9 6506833#5.46 6506833#5.50 6506833#5.72 6506833#5.85 347092915#6 347092915#6.6 347092915#6.44 347092915#6.87 347092915#10 347092915#10.9 347092915#10.68 347092915#10.90 -243338978#6 -243338978#6.8 -243338978#6.83 -243338978#3 -243338978#3.21 -243338978#3.34 -243338978#3.83 901474740#0 901474740#0.9 901474740#0.50 901474740#0.58 901474740#0.104 169917351#0 169917351#0.8 169917351#0.53 169917351#0.88 169917351#4 169917351#4.51 169917351#6 169917351#7 169917351#7.49 169917351#9 169917351#9.48 169917351#9.87 -6516509#14 -6516509#14.5 -6516509#14.58 -6516509#14.86 6507809#10 6507809#10.8 6507809#10.91 6507809#13 6507809#13.9 6507809#13.77 6452520#6 6452520#6.7 185485127#0 185485127#1 -6494970#4 -6494970#4.172 -169917351#24 -169917351#24.6 -169917351#24.71 -169917351#21 -169917351#21.6 -169917351#21.71 -169917351#18 -169917351#18.7 -169917351#18.75 -6360239#3 -6360239#3.6 -6360239#3.69 -6360239#3.102 6487445#0 6487445#0.8 6415147#0 6415147#0.61 6449462#3 6449462#3.7 6449462#3.50 6449462#3.60 6449462#3.72 6449462#3.87 795669781 795669781.52 795669781.56 6497081#6 6497081#6.44 6497081#8 6371720#3 157167355#0"/>
</vehicle>
<vehicle id = "veh8" type= "veh_passenger" depart="7210" >
<route edges =" -813722269#3 -813722269#3.7 -813722269#3.48 -813722269#3.84 -813722269#3.86 620762213#0 620762213#0.9 620762213#0.88 620762212#0 620762212#0.8 620762212#0.52 620762212#3 6430729#6 6430729#6.47 6430729#6.48 -65588100#4 -65588100#4.73 -65588100#4.110 6343949#7 6343949#8 6343949#8.52 65588093#2 65588093#3 292812445#3 292812445#3.49 -6440348#14 -6440348#13 -6440348#13.56 -6440348#13.66 -6440348#13.122 -6440348#13.124 6343949#12 6343949#12.47 -525497324#3 -525497324#2 243349944#4 243349944#4.53 -66558981#2 -66558981#2.131 -66558981#2.234 525497323#2 525497323#2.81 -481291488#2 -481291488#1 6464126#0 6464126#0.46 6464126#0.49 6464126#3 6464126#3.49 6464126#5 6464126#6 6360256#2 6360256#2.128 243349338#1 -22917113#2 -22917113#1 -22917113#1.55 -22917112 -185485118#1 6514312#0 6514312#0.70 926425191#0 926425191#0.5 -6494970#6 -6494970#6.6 -6494970#4 -6494970#4.172 169917351#25 169917351#25.7 169917351#25.72 336908264#3 428247197#0 428247197#0.12 256996977#0 256996977#0.9 256996977#0.40 6391682#0 6391682#0.62 6391682#2 6391682#2.12 6391682#2.24 6391682#2.34 6391682#2.45 185485127#6 -6472293#2 6507813#1 6507813#1.41 6507813#1.49 -6501822#1 6507818#0 6396312#0 -185485127#10 6501822#3 6501822#4 185485117#2 185485117#3 -6449970#4 6463541#2 6463541#2.38 6463541#2.41 6506505#2 6425683#1 6348024#4 32143377#0 32143377#0.40 243349941#3 243349941#4 243349941#5 -352434864#1 -352434864#1.74 -243349331#3 -243349331#3.51 -243349331#3.121 -6464130#5 -6464130#4 -6464130#3 -6464130#3.41 -359671039#1 -359671039#0 359671040#0 359671040#0.40 6449970#9 6336174#4 -6506505#4 -259277920#1 -259277920#0 -259277920#0.32 -259277920#0.50 -8071924#5 -8071924#4 6472293#6 6472293#6.106 -243339793#16 -243339793#16.49 6386110#5 6386110#5.80 428246845 -481291012#7 -481291012#7.22 -481291012#6 -481291012#6.8 -481291012#3 -481291012#3.26 185485132#2 185485132#2.104 243339793#11 243339793#11.47 6494975#1 6494975#1.9 -6464126#12 -6464126#12.48 185485132#4 243349338#3 243349338#3.49 243349338#5"/>
</vehicle>
<vehicle id = "veh9" type= "veh_passenger" depart="7210" >
<route edges =" -6457203#16 -6457203#16.59 975126260#0 975126260#0.49 -6505136#16 6368504#5 6368504#5.48 6368504#7 6368504#7.50 -6513783#8 -170683231#20 -170683231#20.51 -6381494#11 -6381494#11.68 -6381494#11.95 37657905#5 37657905#5.10 37657905#5.46 336904472#3 336904472#3.37 336904472#5 336904472#5.77 638348589 -263666867#2 -263666867#2.43 -263666867#2.72 -603522173#3 -603522173#3.49 6513783#10 6513783#11 6513783#11.206 656838750 -656838752 -656838752.12 -656838752.51 504279347 504279347.177 6363153#3 6363153#3.40 6363153#3.50 6363153#3.56 392673856 392673856.85 6434058#0 6434058#0.15 6434058#0.33 6434058#0.56 6434058#0.73 6434058#0.96 6434058#0.116 6434058#0.128 6386823 6386823.80 620762209 620762209.13 620762209.35 -6438239 -6438239.24 -6438239.117 481291021#0 6444679 481291024#0 7978482 -6383185#20 -6383185#20.7 -6383185#20.14 -6383185#20.31 -6383185#20.76 -6383185#20.87 -6383185#20.95 -6383185#18 -6383185#18.50 -6383185#18.92 -481291020#5 -481291020#5.43 -481291020#5.65 -481291016 481291017#0 481291017#0.46 481291017#2 481291017#2.37 481291017#2.43 481291017#2.49 481291017#2.51 481291017#2.59 481291017#2.71 481291017#2.87 481291017#2.112 481291017#2.124 8071885#2 6483146#0 6483146#0.10 6483146#0.15 6483146#0.49 6483146#0.58 6483146#0.67 6483146#1 6483146#1.50 -6448615#8 -6448615#7 -6448615#6 -6448615#6.24 -6448615#6.44 -6448615#6.47 -6448615#6.70 -6459736#1 -6459736#1.49 -735164739 -735164739.6 -735164739.10 -735164739.15 735164738 735164738.9 735164738.37 735164738.47 735164736 735164736.7 735164736.13 735164737 735164737.10 735164737.15 6522860#0 6522860#0.11 6522860#1 6522860#2 6522860#2.23 6522860#2.40 6522860#2.46 6522860#2.55 6522860#2.62 6522860#2.67 6522860#2.76 6522860#2.89 -6495798#6 -6495798#6.39 6523125#2 -170683288#5 -170683288#5.41 -6345330#2 -6345330#1 65588097#9 -6523125#0 -6460085#10 -6460085#10.12 -6460085#10.42 -6460085#8 -6460085#8.39 -6460085#8.66 476409332#4 -65588097#6 170683231#7 -6460085#5 -6460085#5.109 -6460085#4 -6460085#4.20 -6460085#3 -6460085#3.55 -6384373#1 -6384373#0 476409328#2 476409328#2.118 8071925#0 8071925#0.9 8071925#0.55 8071925#2 8071925#2.36 8071925#2.74 460399791#0 460399791#0.9 460399791#0.31 460399791#0.97 460399791#0.99 169730574#0 169730574#0.11 169730574#0.29 169730574#0.31 854082601 854082601.11 854082601.52 460421484#0 460421484#0.12 -337818330 65588097#0 65588097#0.9 6384373#5 6384373#5.40 6384373#5.50 6384373#5.90 6448612#6 6448612#6.328 -170683231#3 -6495798#1 -6495798#1.232 -6495798#1.266 -428315592#4 -428315592#4.102 -428315592#4.134 -6448612#3 -6448612#3.16 -6448612#1 -6448612#1.133 805680044#5 805680044#5.6 805680044#5.49 6495801#0 6463035#4 6463035#4.46 6463035#4.48 6356676#1 170683665#3 170683665#3.38 -279467136#1 6463035#8 6463035#8.49 -6349133#0 336908262#2 336908262#2.49 -160624558#4 -160624558#4.98 805658294#8 805658294#9 805658294#9.71 -532125609#3 -532125609#2 243349944#27 352434874#2 352434874#3 808266757#1 808266757#2 808266757#2.40 808266757#4 808266757#4.120 808266757#6 6468802#6 -336908261#1 -336908261#1.8 -336908261#1.34 -336908261#1.75 6521060#0 6521060#0.43 6472195#0 6472195#0.10 6472195#0.14 6472195#0.18 6472195#0.42 6472195#0.49 6472195#0.55 6472195#0.56 6472195#0.62 6472195#0.71 6463022#4 6463022#4.52 6463022#4.58 6463022#4.66 6463022#5 6463022#5.5 6463022#5.11 6463022#5.15 6463022#5.29 6463022#7 6463022#7.24 6463022#7.39 6463022#7.50 -8071849#2 -8071849#2.11 -8071849#2.20 -8071849#1 -8071849#1.124 -8071849#1.147 -8071849#1.171 6430750#2 6430750#2.14 6430750#2.25 -6345302#1 -6345302#1.12 -6345302#1.17 -6343958#3 -6343958#2 -6343958#1 -6343958#0 -336908257#8 -243349944#32 6409640#12 -243349945#23 -243349945#23.41 -243349941#11 -243349944#29 -263665040#1 -263665040#1.27 -263665040#1.83 -263665040#1.86 -6447445#17 -352434874#0 -263665039 -263665039.32 -263665039.58 -263665039.72 -6449970#12 -243349338#10 359671039#3 -438895608#0 -438895608#0.27 438895607 438895607.119 160624558#0 160624558#0.9 160624558#0.16 -243349944#24 -243349944#24.50 -243349944#22 -243349944#22.50 -243349944#20 -243349944#20.50 -243349944#18 -243349944#18.47 -243349944#16 -243349944#16.49 -243349944#14 -243349944#14.46 -243349944#14.49 6360256#8 6360256#8.125 -243349945#2 -243349945#2.8 -243349945#2.86 396055523#7 396055523#7.122 396055523#9 396055523#9.6 396055523#9.20 396055523#9.54 6447445#0 6447445#0.8 6447445#0.87 6447445#3 6447445#3.51 6447445#5 6447445#5.47 6447445#7 6447445#7.46 -6494975#6 -6494975#6.81 256994205#3 428246847#0 428246847#0.8 428246847#0.22 6386110#0 6386110#0.16 6386110#0.25 6386110#0.55 -243349338#6 -243349338#6.14"/>
</vehicle>
<vehicle id = "veh10" type= "veh_passenger" depart="7210" >
<route edges =" -6522868 6403883#8 -6428544#15 -6428544#15.8 -6428544#13 -6428544#12 -6428544#12.50 -6346524#7 -263668130#0 -6523130 428098973 428098976#0 428098976#0.28 428098976#0.31 428098976#3 428098976#3.15 428098976#3.23 -8071658#2 -8071381#2 -6428544#4 -6384935#3 -6384935#3.145 -8071895#0 -6358515#0 -8071894#0 621088607#0 621088607#1 -749754758#12 -749754758#12.26 -6368518#3 -6368518#3.49 6366765#4 6366765#5 6366765#5.118 6414229#4 6414229#4.5 6414229#4.47 6414229#4.88 -749754758#7 -749754758#7.3 -749754758#7.122 -6464391#12 -6464391#12.4 -6464391#12.46 -6464391#12.88 -6464391#8 -6464391#8.3 -6464391#8.64 6358524#6 6358524#6.5 6358524#6.55 6414229#12 752851600#11 752851600#11.84 752851600#13 752851600#13.62 8071894#4 -6470834 -6470834.4 -6470834.8 -6470834.12 -428098986 -428098986.2 -428098986.6 -428314467 -428314467.16 -428314460 -428098985#1 -428098985#1.1 621283354 158882561#0 158882561#0.63 158882561#0.77 158882561#0.95 158882561#0.112 61958425 -6368665#5 -6368665#5.9 -6368665#5.17 -6368665#5.26 -6368665#5.35 -6368665#5.53 -6368665#4 -6368665#4.121 -6368665#2 -6368665#1 -6368665#1.49 -6368665#1.91 -6368665#1.93 171739214#11 171739214#12 6346524#0 158882505#3 6411908#3 -158882517#2 6346524#2 158882511#3 6411908#5 6411908#5.89 6411908#5.98 6411908#5.108 6411908#6 6323849#0 6323849#0.39 6323849#2 6323849#3 6323849#3.9 6323849#3.21 6323849#3.30 6323849#3.53 6323849#3.67 -6403883#6 -6403883#5 6368504#0 6368504#1 6368504#1.33 6368504#3 6368504#3.46 -6505136#15 -8111707#1 -8111707#1.51 -158882511#9 -158882511#9.24 -158882511#8 -6403883#3 158882517#5 -6469837#2 158882505#8 8111709#0 8111709#0.47 8111709#2 8111709#2.49 6464042#8 6464042#8.123 37657905#0 37657905#0.5 37657905#0.47 37657905#3 37657905#3.48 -6381494#8 -6381494#8.122 -6381494#8.124 -757399066#2 -757399066#2.17 -757399066#2.53 -6513783#5 6384359#8 6384359#9 6384359#9.26 -6381494#3 -6381494#3.43 6463017#6 6463017#6.48 -6386837#0 292812445#11 292812445#11.49 481291015#0 481291015#0.20 481291015#0.59 -343521145#3 -343521145#3.32 -343521145#3.66 -343521145#3.101 -343521145#3.142 -343521145#3.155 337739267#0 337818462 337818462.3 337818462.6 337739271#1 337739271#1.6 337739269#0 337739269#1 337739269#1.30 -801995081#6 -801995081#6.9 -801995081#5 -801995081#5.197 -801995081#5.209 -801995081#2 -801995081#2.109 -801995081#0 -801995082 -6380913#14 -6425689#3 -6425689#3.44 -460419007#0 -460419007#0.17 -460419007#0.46 460419008#0 460419008#0.50 -6380913#11 -6380913#11.53 6463536#0 6463536#0.21 6463536#0.30 6463536#0.40 6463536#0.47 6463536#0.52 6463536#0.58 6463536#0.69 6463536#0.79 6463536#0.80 6516509#4 6516509#4.6 6516509#4.33 6516509#4.47 6516509#4.52 6516509#4.66 6516509#4.84 6467507#10 6467507#10.9 6467507#10.76 6467507#10.86 -6360239#9 -6360239#9.84 -6360239#7 -6360239#7.6 -6360239#7.47 -6360239#7.86 169917351#16 169917351#16.9 169917351#16.77 -6452520#2 -6452520#2.4 -6452520#2.101 460421482#0 460421482#0.8 460421482#0.73 6497081#0 6497081#0.8 6415147#3 6415147#4 6415147#5 6415147#6 -6351349#1 -6351349#1.48 -6351349#1.82 256996977#6 256996977#6.43 256996977#6.78 6354836#0 6354836#0.6 6354836#1 6354836#1.40 6354836#3 -256997441#7 -256997441#7.46 6351349#5 -185483733 -6414318#4 -157167355#0"/>
</vehicle>
<vehicle id = "veh11" type= "veh_passenger" depart="7210" >
<route edges =" 817434294 817434294.10 817434294.36 817434294.44 817434294.63 817434294.119 816616072#4 816616072#4.7 816616072#4.62 816616072#4.121 816616072#8 816616072#8.6 816616072#8.121 158882495#0 158882495#0.6 171739207#0 171739207#0.49 160552467#0 337668916#8 337668916#8.47 6403874#1 6403874#1.38 171739214#20 171739214#21 171739214#21.8 171739214#21.28 171739214#21.32 -6457203#0 6384359#0 6384359#0.22 6384359#0.45 6384359#0.50 -6505136#6 -6505136#6.18 6463017#0 6463017#0.48 6463017#2 6463017#2.44 6463017#2.48 6463017#5 -6381494#1 -6381494#0 -292812445#8 -292812445#8.59 -525497324#8 6430729#17 6430729#17.51 -620762224#0 -66558981#7 -66558981#7.65 -66558981#7.83 -66558981#7.105 -66558981#7.123 -243349944#5 -243349944#5.51 -525497324#1 -525497324#0 -179552126 -179552126.19 -179552126.34 -179552126.50 -179552126.90 -6440371#11 -6440371#11.12 -6440371#11.144 293775902#8 293775902#8.6 293775902#8.49 293775902#8.91 -6512920#7 -6512920#7.4 -6512920#7.122 -6512920#7.124 6464138#12 6464138#12.51 -6481166#10 -6481166#10.6 -6481166#10.8 -6481166#10.120 -353690154#14 -353690154#14.66 -353690154#14.91 -353690154#11 -353690154#11.4 -353690154#11.46 -353690154#11.54 -353690154#11.89 -353690154#7 -353690154#7.9 -353690154#7.42 -353690154#7.47 -353690154#7.90 -22917111#13 -22917111#13.8 -22917111#13.10 -22917111#13.79 -22917111#13.80 -22917111#13.98 -22917111#13.123 -22917111#10 -22917111#10.9 -22917111#10.32 -22917111#10.71 -22917111#10.74 -22917111#10.76 -22917111#10.93 -22917111#10.155 -22917111#10.196 -353690160#2 -353690160#2.8 -353690160#2.90 -486844942#6 -486844942#6.9 -486844942#6.25 -486844942#6.67 -486844942#6.92 -6476327#15 -6476327#15.10 -6476327#15.38 -6476327#15.65 -6376376#6 -6376376#6.8 -6376376#6.89 -6376376#3 -6376376#3.1 -6376376#3.10 -6376376#3.64 -6376376#3.89 6435230#9 436480243#0 436480243#0.15 436480243#0.34 436480243#0.43 -353690159#8 -353690159#8.13 -353690159#8.23 -353690159#8.30 -353690159#8.49 -353690159#8.93 -6343878#11 -6343878#11.8 -6343878#11.104 -6463530#9 -6463530#9.9 -6463530#9.49 -6463530#9.91 -6456044#5 -6456044#5.7 -6456044#5.86 -6456044#2 -6456044#2.8 -6456044#2.86 -6456044#2.88 -6456044#2.89 -6456044#2.90 -6456044#2.92 893868549#0 893868549#0.1 893868549#0.2 893868549#0.3 893868549#0.6 893868549#0.45 893868549#0.85 893868549#3 893868549#3.4 893868549#3.48 893868549#3.84 893868549#3.86 -6435230#4 -6435230#4.33 -6435230#2 -6435230#2.6 -6435230#2.34 -436480244#2 -436480244#2.33 -436480244#2.39 -436480244#2.42 32121988#0 32121988#0.9 32121988#0.30 32121988#0.39 32121988#0.51 32121988#0.83 6397352#0 6397352#0.2 6397352#0.5 6397352#0.9 6397352#0.56 6397352#0.105 617435761#5 617435761#5.33 617435761#5.45 6476327#4 6476327#4.7 6476327#4.35 6476327#4.86 6476327#8 6476327#8.6 6476327#8.84 893868547#0 893868547#0.8 893868547#0.91 -893868548#2 -893868548#2.7 -893868548#2.85 901474739#0 901474739#0.7 901474739#0.111 -22917110#2 -22917110#2.6 -22917110#2.86 901477545#4 901477545#4.7 901477545#4.69 6440364#4 6440364#4.6 6440364#4.86 6440364#7 6440364#7.7 6440364#7.83 876005345#0 876005345#0.6 876005345#0.172 876005345#0.185 876005345#0.193 876005345#0.195 179552384#0 179552384#0.7 179552384#0.28 179552384#0.44 179552384#0.49 179552384#0.89 -512168130#2 -512168130#2.10 -512168130#2.12 -512168130#2.65 -512168130#2.197 -901474742#2 -901474742#2.5 -901474742#2.43 -901474742#2.83 -901477546#2 -901477546#2.6 -901477546#2.45 -901477546#2.87 -901474740#3 -901474740#3.7 -901474740#3.53 -901474740#3.61 -901474740#3.102 256996974#11 256996974#11.6 256996974#11.33 256996974#11.65 6481166#0 6481166#0.6 6481166#0.73 6481166#0.104 6481166#4 6507809#3 6447971#5 6447971#6 6447971#7 -263669069#0 6481166#7 6481166#7.43 486874837#1 -6447971#9 6425689#0 6425689#0.48 6425689#2 6425689#2.48 -6380913#13 6425675 460419024#5 460419024#5.50 460419024#5.63 460419024#5.69 6516509#0 6516509#0.7 6516509#0.30 6516509#0.46 6516509#0.66 6516509#0.90 6516509#0.105 6516509#0.109 6516509#4 6516509#4.6 6516509#4.33 6516509#4.47 6516509#4.52 6516509#4.66 6516509#4.84 -6467507#9 -6467507#9.9 -6467507#7 -6467507#7.46 -6515975#6 -6515975#5 -6515975#5.48 -169917351#6 -6447971#3 -6447971#3.29 -6447971#3.37 -6447971#3.61 881403606#0 881403606#0.12 881403606#0.42 881403606#0.83 881403606#0.85 22917665#0 22917665#0.7 -6445835#1 -6445835#1.53 256996973#0 256996973#0.33 256996973#0.45 256996973#0.49 6385341#0 6385341#0.19 6385341#0.20 6385341#0.34 6385341#0.47 6385341#0.50 6385341#0.54 6385341#0.58 6385341#0.73 6385341#0.78 6385341#0.81 6385341#0.84 6385341#0.87 6385341#0.126 6385341#0.138 6384260#2 6384260#3 6384260#3.54 -6487445#4 -6487445#4.15 -6487445#4.55 6415147#0 6415147#0.61 6415147#2 6497081#2 6497081#2.38 6497081#2.47 6497081#2.53 6497081#2.60 6497081#2.67 6497081#2.70 6497081#2.74 6497081#2.81 6497081#2.120 6497081#6 6497081#6.44 -6414318#2 -6414318#2.8 -6414318#0 -6414318#0.76 -6414318#0.81 460418987#0 460418987#0.4 460418987#0.8 -6414273#1 -6414273#1.22 -460418992#4 -460418992#4.6 -460418992#4.125 6371704#1 6371704#1.36 -460418987#2 6371720#0 6371720#0.7 795669782#3 795846818#0 795846818#0.1 460418978#3 460418978#3.9 460418978#3.49 369455641#1 369455641#1.28 369455641#1.78 512126021#0 512126021#0.7 512126021#0.31 512126021#0.66 157167355#0"/>
</vehicle>
<vehicle id = "veh12" type= "veh_passenger" depart="10815" >
<route edges =" -813722269#3 -813722269#3.7 -813722269#3.48 -813722269#3.84 -813722269#3.86 569505974#0 569505974#0.10 569505974#0.37 816616073#0 816616073#0.78 6343949#3 6343949#3.9 6343949#3.49 6343949#6 6343949#7 -8071898#2 -8071898#1 -8071898#1.60 -8071898#1.73 -8071898#1.89 -8071898#1.91 292812445#0 292812445#0.35 292812445#0.50 -65588093#3 6430729#13 6430729#13.48 6430729#15 6430729#15.48 -525497324#7 -525497324#7.39 -525497324#7.54 -525497324#7.112 -525497324#3 -525497324#2 243349944#4 243349944#4.53 243349944#6 -481291488#4 -481291488#4.47 40416132#0 40416132#0.19 460419011#3 243349944#8 243349944#9 243349944#10 243349944#10.7 243349944#10.84 -6360256#7 -6360256#7.5 6447445#3 6447445#3.51 22917113#5 243349944#15 243349944#15.48 185485132#10 185485132#11 185485132#11.115 805658294#0 805658294#0.38 805658294#0.52 -6494975#9 -6494975#9.13 -6494975#9.24 -6494975#8 243349944#19 243349944#19.47 243349942#0 243349942#0.100 243349945#13 243349945#13.48 6472289#3 -805658294#5 -805658294#5.50 243349942#2 -805680044#10 -805680044#9 -805680044#9.50 -805680044#7 -805680044#7.48 -805680044#7.91 -805680044#4 -805680044#4.8 -805680044#4.49 -805680044#4.92 6486416#0 6486416#0.9 6486416#0.116 460421484#0 460421484#0.12 428315592#0 428315592#0.12 428315592#0.53 428315592#0.95 6448612#4 6448612#4.11 -6384373#8 -6384373#8.6 -6384373#8.46 -6384373#8.57 65588097#2 65588097#2.69 -6464374 6460085#4 6460085#4.35 6460085#5 6460085#5.26 -170683231#7 65588097#6 476409332#5 476409332#6 476409332#7 -6356667#2 -6356667#1 -6356667#1.147 -6356667#1.181 -428315591#1 -6356671#2 -6356671#2.8 -6356671#2.34 6349021#0 6464371#0 6464371#0.8 6464371#0.32 40416127#0 40416127#0.9 40416127#0.27 535540393#0 535540393#0.12 535540393#0.32 535540393#0.47 912599280 6488417#0 6488417#0.10 739678026 739678026.4 170683288#0 170683288#0.14 170683288#1 170683288#1.76 170683288#1.83 170683288#2 170683288#2.7 170683288#2.14 170683288#2.44 6345330#3 6345330#3.60 6345330#3.84 -6349125#2 -6349125#2.60 -6349125#2.61 -6349125#2.68 -6349125#2.76 -6349125#2.79 -476409332#11 -476409332#11.8 -6349126#4 -6349126#4.29 -6349126#4.47 -6349126#4.62 -6349126#4.68 -6349126#4.76 -6349126#4.79 -6349126#4.104 -854081622#0 -854081622#0.13 -19000995#2 -19000995#2.7 -19000995#2.29 -6349133#3 40416130#1 6353867#1 6414237#1 -6353172#1 -6353172#0 -6353177#4 -6353177#3 -6353177#3.7 -6353177#3.98 -6353177#3.134 -160624558#4 -160624558#4.98 805658294#8 -359671039#8 -359671039#8.55 -359671039#6 -243349944#25 -243349944#24 -243349944#24.50 -6472289#1 -6447445#11 -6447445#10 -6447445#10.48 -6494975#6 -6494975#6.81 256994205#3 428246847#0 428246847#0.8 428246847#0.22 6386110#0 6386110#0.16 6386110#0.25 6386110#0.55 -243349338#6 -243349338#6.14"/>
</vehicle>
<vehicle id = "veh13" type= "veh_passenger" depart="10815" >
<route edges =" -816616074#1 -816616074#1.10 -816616074#1.14 -816616074#1.119 428341734#4 428341734#4.8 428246439#0 428246439#0.14 428246438#0 428246438#0.8 428246440#0 428246440#0.62 -800744528#1 -800744528#1.8 -800744528#1.16 -800744528#1.37 -800744528#1.72 826314456#0 826314456#0.9 826314456#0.50 826314456#0.96 826314456#0.103 -6476313#2 -6476313#2.11 -6476313#2.29 -6476313#2.98 -6476313#2.99 -6476313#2.103 -6476313#2.107 164418944#4 164418944#4.7 164418944#4.8 164418944#4.29 164418944#4.51 164418944#4.95 -353690150#2 -353690150#2.8 -353690150#2.144 293775902#0 293775902#0.7 293775902#0.52 293775902#0.90 293775902#4 293775902#4.6 293775902#4.49 293775902#4.88 293775902#8 293775902#8.6 293775902#8.49 293775902#8.91 293775902#12 293775902#12.3 293775902#12.50 6481166#12 525497323#2 525497323#2.81 -481291488#2 -481291488#1 -481291488#0 -481291488#0.69 -481291488#0.82 243339793#0 243339793#0.48 460419011#1 460419011#1.11 6464126#3 6464126#3.49 -801995081#0 243339793#4 -460419028#4 -460419028#3 243349338#0 243349338#0.18 243349338#1 243349338#2 243349338#3 243349338#3.49 243349338#5"/>
</vehicle>
<vehicle id = "veh14" type= "veh_passenger" depart="10815" >
<route edges =" 817434294 817434294.10 817434294.36 817434294.44 817434294.63 817434294.119 6343949#0 6343949#0.7 6343949#0.86 -816616073#1 -816616073#1.7 -569505974#1 -569505974#1.6 -569505974#1.33 -569505976#2 -569505976#2.9 -569505976#2.88 -569505976#2.115 -569505976#2.119 -569505978#1 -569505978#1.10 -569505979 -569505979.32 -569505979.79 337673338#0 337673338#0.14 185882764 185882764.13 185882764.14 185882765 185882765.16 185882765.26 185882765.30 185882765.31 395933841 164418944#0 164418944#0.13 164418944#0.18 164418944#0.32 164418944#0.39 -353690148#9 -353690148#9.7 -353690148#9.10 -353690148#9.12 -353690148#9.13 -353690148#9.38 -353690148#9.143 893866065#7 893866065#7.7 893866065#7.48 893866065#7.90 -893866064#2 -893866064#2.7 -893866064#2.122 -893866059#2 -893866059#2.7 -893866059#2.120 -893866059#2.121 -893866057 -893866057.8 -893866057.9 -893866057.122 -353690152#2 -353690152#2.8 -353690152#2.89 -6476327#20 -6476327#20.8 -6476327#20.163 -6476327#20.182 -6476327#20.195 486844942#4 486844942#4.7 486844942#4.31 486844942#4.73 486844942#4.89 353690160#0 353690160#0.6 353690160#0.88 353690160#3 353690160#3.6 353690160#3.90 179552384#0 179552384#0.7 179552384#0.28 179552384#0.44 179552384#0.49 179552384#0.89 465971499#0 465971499#0.6 263669069#0 6447971#8 6447971#9 486874837#2 486874837#2.47 460419013#0 460419013#0.51 481291014#0 481291014#0.53 -460419028#7 -460419028#7.7 -460419028#7.33 -460419028#7.45 243339793#5 -6360256#0 -6360256#0.8 486875123#0 486875123#0.56 486875123#0.88 -185485118#1 -185485118#0 -185485118#0.55 -185485118#0.102 -185485118#0.141 -6467507#14 -6467507#14.73 -6467507#12 -6467507#12.14 -6467507#12.24 -6467507#12.91 6516509#8 6516509#8.7 6516509#8.85 6507809#10 6507809#10.8 6507809#10.91 -6360239#7 -6360239#7.6 -6360239#7.47 -6360239#7.86 169917351#16 169917351#16.9 169917351#16.77 -6452520#2 -6452520#2.4 -6452520#2.101 6449462#0 6449462#0.9 6449462#0.46 6449462#3 6449462#3.7 6449462#3.50 6449462#3.60 6449462#3.72 6449462#3.87 795669781 795669781.52 795669781.56 6497081#6 6497081#6.44 6497081#8 6371720#3 157167355#0"/>
</vehicle>
<vehicle id = "veh15" type= "veh_passenger" depart="10815" >
<route edges =" -814326475#2 -814326475#2.9 -814326475#2.24 -814326475#2.41 -814326475#2.70 -814326475#2.91 -723013181#2 -723013181#2.9 -723013181#2.18 -723013181#2.38 -723013181#0 -332601014#3 -332601014#3.31 -332601014#3.36 -332601014#3.42 -428246436#1 -428246436#1.13 -428246436#1.22 -428246436#1.37 -808907363#3 -808907363#3.25 -808907363#3.35 -808907363#3.48 -808907363#3.53 -808907363#3.61 -797328240#3 -797328240#3.13 -797328240#3.26 -797328240#3.65 -797328240#3.93 -797328240#3.115 -337673342#5 -337673342#5.3 -337673342#5.9 -337673342#5.13 -337673342#5.21 -337673342#5.35 -337673342#5.72 -607691082#1 6501701#2 6501701#2.50 6501701#2.60 -6475815#4 -6475815#3 -6475815#3.2 -6475815#3.17 -6475815#3.46 -428089348#3 -428089348#3.15 -428089348#3.21 -428089348#3.28 -428341218#2 -428341218#2.3 -428341218#2.9 -65588069#1 -65588069#1.13 -428089351#1 -428089351#1.16 293753570#3 293753570#3.10 293753570#3.31 293753570#3.45 293753570#3.54 293753570#3.85 22927969#11 22927969#11.6 22927969#11.48 22927969#11.87 6438604#5 6438604#5.9 738637223#0 738637223#0.15 738637224 738637224.4 738637224.11 738637224.20 738637224.25 738637224.29 759056694#0 759056694#0.18 759056694#0.41 759056694#0.59 -368560864#2 -368560864#2.7 -368560864#2.11 -368560864#2.84 -368560864#2.86 -368560864#2.88 -6462029#17 -6462029#17.2 -6462029#17.5 -6462029#17.7 -6462029#17.45 -6462029#17.88 6511397#11 6511397#11.8 6511397#11.56 6511397#11.64 6511397#11.66 6511397#11.68 6511397#11.71 -912290518#7 -912290518#7.59 6349123#0 6349123#0.7 6349123#0.112 6349123#3 6349123#3.10 6349123#3.63 6349123#3.77 6415868#3 6415868#3.71 6415868#5 158612542#8 158612542#8.37 158612542#8.77 158612542#8.79 -6343952#4 -6343952#4.87 -6343952#4.91 -6343952#3 -6343952#3.3 -6343952#3.7 6349123#8 -6430733#4 -6430733#4.10 8071579 -393047811 -393047810#1 -393047810#1.14 -393047810#1.66 -393047810#1.75 -436163947#2 -436163947#2.10 -436163947#2.77 -256993082#5 -256993082#5.11 -256993082#3 -256993082#3.4 -256993082#3.32 -256993082#3.38 -508340468#5 -508340468#5.10 -508340468#5.76 -508340468#2 -508340468#2.20 -508340468#2.58 -460423539#2 -460423539#2.8 -460423539#2.47 -460423539#2.71 6415868#0 6415868#0.47 -6511393#6 -6511393#6.32 -6511393#6.48 -6511393#6.81 -6511393#6.115 -723052303 -568586006 -568586005 -568586003 -568586003.29 -568586003.32 -568586003.36 -568586003.39 -568586003.43 -568586003.46 -568586003.50 -568586003.65 -749622503#35 -749622503#35.9 -749622503#35.13 -749622503#35.52 -749622503#35.58 -749622503#35.118 -749622503#35.124 -749622503#30 -749622503#30.5 -749622503#30.9 -749622503#30.79 -749622503#30.85 -749622503#30.120 -6462029#9 -6462029#9.9 -6462029#9.87 532416982#0 532416982#0.9 428231024#0 428231024#0.38 -759056694#16 -759056694#16.8 -759056694#16.23 -759056694#16.28 -759056694#16.42 -759056694#16.60 -759056694#16.85 -749622503#22 -749622503#22.9 -749622503#22.51 -749622503#22.84 -749622503#18 -749622503#18.7 -749622503#18.55 -749622503#18.81 -428227803#1 -428227803#1.9 -428227860 -428227860.14 -428227828 -428227842 -428227822#1 -428227822#1.17 -428227833#1 -428227833#1.13 -428227838 -428227854#1 -428227854#1.5 -428227818 -428227865#1 -428227865#1.18 -428227899#1 -428227899#1.9 -428227850#1 -428227850#1.24 -428227893#1 -428227893#1.17 -169511255#15 -169511255#15.10 -169511255#15.84 -706262355#2 -706262355#2.9 -706262355#2.15 -706262355#2.50 -8111067#8 -8111067#8.8 -8111067#8.39 -8111067#8.57 -8111067#8.85 -8111067#5 -8111067#5.7 -8111067#5.83 263672096#4 263672096#4.7 263672096#4.42 263672096#4.87 -169511255#3 -169511255#3.9 -169511255#3.45 -169511255#3.82 -788766516#2 -788766516#2.11 -788766516#2.49 -788766516#2.78 -788766516#2.88 338073583#0 338073583#0.9 338073583#0.24 338073583#0.78 338073583#0.88 338073583#4 338073583#4.8 338073583#4.15 338073583#4.79 338073583#4.84 338073583#7 338073583#7.8 338073583#7.14 338073583#7.85 263672156#3 263672156#3.7 263672156#3.57 263672156#3.86 369877031#0 369877031#0.10 369877031#0.31 369877031#0.46 369877031#0.88 -749622503#8 -749622503#8.7 -749622503#8.63 -749622503#8.83 -749622503#4 -749622503#4.84 -749622503#2 -749622503#2.9 -749622503#2.29 -749622503#2.64 -749622503#2.84 -6522514#4 -6522514#4.7 -6522514#4.36 -6522514#4.61 -6522514#4.66 -6522514#4.67 -6522514#4.73 -332223490#1 -332223490#1.19 -428088887#1 -428088887#1.12 -428088892 -428088886#1 -428088886#1.24 -428088886#1.35 -428088886#1.45 -65588108#1 -65588108#1.18 -65588108#1.53 -332223489#3 -332223489#3.4 -332223489#3.15 -332223489#3.17 -332223489#3.21 -401497115 -401497115.113 -401497115.170 -401497115.214 -428233435 -460425668 -460425668.5 425646007#0 425646007#0.10 425646007#0.17 425646007#0.20 425646007#0.22 425646007#0.27 -724644768 -724644768.35 6402586#0 6402586#0.1 6402586#0.4 6402586#0.6 6402586#0.12 6402586#0.35 6402586#0.59 6402586#4 6402586#4.72 6402586#4.75 6402586#4.77 6402586#4.80 208021560#0 208021560#0.2 208021560#0.5 208021560#0.8 208021560#0.11 208021560#0.30 208021560#0.39 208021560#0.44 208021560#0.106 208021560#0.125 208021560#0.133 208021560#0.136 347092914#0 347092914#0.10 347092914#0.14 347092914#0.24 347092914#0.54 347092914#0.75 347092914#0.87 332223488 332223488.25 332223488.48 332223488.65 332223488.68 332223488.88 347092907#0 347092907#0.3 347092907#0.13 347092907#0.19 347092907#0.26 347092907#0.31 347092907#0.38 347092907#0.40 347092907#0.45 347092907#0.51 6405076#0 6405076#0.10 6405076#0.18 6405076#0.21 6405076#0.58 6405076#0.79 6405076#0.81 6405076#3 6405076#3.4 6405076#3.8 6405076#3.14 6405076#3.20 6405076#3.50 6405076#3.68 6405076#3.84 6405076#6 6405076#6.6 6405076#6.21 6405076#6.26 6405076#6.33 6405076#6.44 6405076#6.49 6405076#6.65 6405076#6.68 6405076#6.71 6405076#6.77 6405076#6.79 6405076#6.82 6405076#6.87 256996971#0 256996971#0.7 256996971#0.23 256996971#0.32 256996971#0.37 256996971#0.85 32135545#0 32135545#0.9 32135545#0.63 32135545#0.103 901477545#0 901477545#0.8 901477545#0.89 901477545#4 901477545#4.7 901477545#4.69 6440364#4 6440364#4.6 6440364#4.86 901474739#7 901474739#7.8 901474739#7.82 901474742#0 901474742#0.6 901474742#0.45 901474742#0.83 6467507#0 6467507#0.7 6467507#0.88 6467507#3 -6447971#5 -6507809#3 -6481166#4 169917351#4 169917351#4.51 -6447971#3 -6447971#3.29 -6447971#3.37 -6447971#3.61 881403606#0 881403606#0.12 881403606#0.42 881403606#0.83 881403606#0.85 881403606#4 881403606#4.53 881403608#2 881403608#2.2 881403608#2.5 881403608#2.8 881403608#2.11 881403608#3 881403608#3.2 881403608#3.5 881403608#3.8 881403608#3.11 976099002#0 976099002#0.34 976099002#0.40 976099002#0.64 965874292#7 965874292#7.8 965874292#7.41 965874292#10 965874292#10.35 965874292#12 965874292#12.8 965874292#12.69 158123767#0 158123767#0.10 158123767#0.11 158123767#0.50 158123767#0.74 158123767#0.86 158123767#0.115 158123767#0.122 158123767#0.134 158123767#0.139 158123767#0.166 795669782#0 795669782#0.54 6414318#1 6414318#1.86 6414318#3 -157167355#0"/>
</vehicle>
<vehicle id = "veh16" type= "veh_passenger" depart="14420" >
<route edges =" -813722269#3 -813722269#3.7 -813722269#3.48 -813722269#3.84 -813722269#3.86 569505974#0 569505974#0.10 569505974#0.37 816616073#0 816616073#0.78 813722270#0 813722270#0.7 813722270#0.42 813722270#0.74 813722270#0.75 813722270#0.121 813722270#5 813722270#5.7 813722270#5.118 6411908#0 -337668916#5 -337668916#5.44 -337668916#5.90 -337668916#3 -337668916#3.10 -337668916#3.49 -337668916#3.92 337668911#0 337668911#0.7 337668911#0.37 337668911#0.90 -171739214#9 8071890#0 8071890#0.56 -158882558 -896104581#1 -896104581#1.6 158882511#0 158882511#1 158882511#1.35 158882511#3 158882511#4 -160552467#9 -160552467#8 158882505#6 6403883#2 158882517#5 6469837#3 158882511#9 158882511#9.51 8111707#0 8111707#0.47 6505136#15 6505136#16 975126260#2 975126260#2.48 603522173#0 603522173#0.48 -6513783#9 -6368504#8 -6368504#8.48 603522174#1 603522174#2 603522174#2.123 -8111708#5 -8111708#5.7 -8111708#5.45 -8111708#2 -8111708#2.52 -8111708#2.57 -8111708#2.87 -8111708#2.90 -8111708#2.92 -8111708#2.94 -8111708#2.97 -8111708#2.99 -6457203#7 -6457203#7.15 -6457203#7.37 -6457203#7.51 -6457203#7.77 -6457203#7.91 -6457203#3 -6457203#3.34 -6457203#3.51 -6457203#3.73 -6457203#3.81 -6457203#0 -8071899 -337668916#11 -337668916#11.23 -337668916#11.39 -337668916#10 -6403874#0 -65588100#6 -65588100#6.7 6430729#9 6430729#9.48 8071898#2 8071898#3 620762214 332092195#0 332092195#0.9 332092195#0.74 460423532#0 460423532#0.2 620762218#0 620762218#0.55 620762218#0.66 620762218#0.68 620762218#0.81 -6440348#7 -6440348#7.9 243349944#0 243349944#0.4 243349944#0.20 243349944#0.49 243349944#4 243349944#4.53 243349944#6 243349944#7 460419011#4 337739269#1 337739269#1.30 481291013#0 481291013#0.16 481291013#0.30 481291013#0.70 481291013#0.75 481291013#0.79 481291013#0.109 481291013#0.113 -481291015#1 -481291015#1.3 -481291015#1.42 -292812445#12 -292812445#12.49 6386837#0 6386837#1 8071897#0 8071897#0.89 8071925#0 8071925#0.9 8071925#0.55 6383185#3 6383185#3.8 6383185#5 61151096 6460085#5 6460085#5.26 170683231#8 170683231#8.40 170683231#10 170683231#10.39 -791722143#0 -791722143#0.80 476409332#0 476409332#0.44 6383185#8 6383185#8.23 6383185#8.67 6383185#8.93 6383185#8.141 476409333#2 476409333#2.45 6523125#0 65588097#10 65588097#10.40 6522860#1 6448615#0 6448615#0.41 -6459736#1 -6459736#1.49 -394736758#7 -394736758#7.6 -394736758#7.14 -394736758#7.26 -394736758#7.93 -394736758#6 -394736758#6.26 6489854#0 6489854#0.50 6448615#8 6483146#3 6483146#3.48 159937059#2 159937059#3 159937059#3.69 159937059#3.76 6428558#0 6428558#0.9 6428558#0.56 6428558#0.147 6428558#0.154 6428558#0.157 -170683288#8 -170683288#8.6 -170683288#8.15 -6459736#10 -6459736#10.20 -6459736#10.53 -6459736#10.60 -6495798#8 -6495798#8.42 -6495798#6 -6495798#6.39 6523125#2 -170683288#5 -170683288#5.41 -6345330#2 -6345330#1 -65588097#8 -65588097#8.39 476409332#5 -6448612#8 170683231#4 170683231#4.50 170683231#4.58 -65588097#5 -65588097#5.172 -65588097#3 -65588097#3.73 -65588097#1 -65588097#1.119 337818330 6463035#0 6463035#0.14 6463035#0.38 -6448612#1 -6448612#1.133 -22917113#10 -22917113#10.7 -22917113#10.129 -22917113#10.132 -22917113#7 -22917113#7.10 -22917113#7.19 -22917113#6 -22917113#5 6447445#5 6447445#5.47 185485132#9 243349944#17 243349944#17.50 6494975#8 6494975#9 6494975#9.108 6494975#9.119 6494975#10 6494975#10.11 6494975#10.19 6356676#0 6463035#7 279467136#1 279467136#2 279467136#2.29 279467136#2.52 40416130#0 -6349133#2 -6349133#2.120 -6349133#1 6463035#10 6463035#10.48 6463035#12 6463035#12.7 6463035#14 -6369950#0 -336908262#6 -336908262#5 -336908262#5.80 -336908262#3 -336908262#3.49 -6472289#4 -6472289#3 243349945#15 243349945#15.47 243349945#17 243349945#18 243349945#19 243349945#20 -263665040#2 -263665040#2.22 -243349944#28 -243349944#27 -532125609#1 -532125609#0 -438895608#1 -359671039#3 -359671039#2 -6464130#1 -6464130#1.43 -6501822#11 -6501822#10 6336174#0 6336174#0.42 6336174#2 6336174#2.43 -6449970#9 -359671040#1 -359671040#1.39 -6441276#1 -6441276#1.40 -6501822#7 -8071924#4 -8071924#3 -8071924#3.39 -8071924#3.51 -6391677 -926425191#3 -926425191#2 6494970#7 6494975#0 6494975#0.105 6494975#1 6494975#1.9 6464126#13 6464126#13.49 6464126#15 6464126#15.47 795671505#2 243349338#8 160624556 160624556.10 438895607 438895607.119 -6447445#13 -6447445#13.40 -6447445#11 -22760521#2 -22760521#2.81 -22760521#2.121 428246847#0 428246847#0.8 428246847#0.22 6386110#0 6386110#0.16 6386110#0.25 6386110#0.55 -243349338#6 -243349338#6.14"/>
</vehicle>
<vehicle id = "veh17" type= "veh_passenger" depart="14420" >
<route edges =" -816616074#1 -816616074#1.10 -816616074#1.14 -816616074#1.119 428341734#4 428341734#4.8 428246439#0 428246439#0.14 428246438#0 428246438#0.8 428246440#0 428246440#0.62 800744529#0 800744529#0.7 800744529#0.52 800744529#0.89 825336588#0 825336588#0.7 349901822#2 349901822#2.21 -620762214 179551719 179551719.37 179551719.46 179551719.51 179551719.88 179551719.93 179551719.97 739843348#0 739843348#0.4 739843348#0.9 -460423532#1 -460423532#1.17 -22917111#30 -22917111#30.9 -22917111#30.50 -22917111#30.96 -22917111#26 -22917111#26.7 -22917111#26.41 -22917111#26.121 32135548#5 32135548#5.7 32135548#5.49 32135548#5.88 32135548#9 32135548#9.7 32135548#9.47 32135548#9.63 32135548#9.78 525497323#0 525497323#0.50 525497323#2 525497323#2.81 40416132#0 40416132#0.19 40416132#1 40416132#1.90 -801995081#2 -801995081#2.109 6464126#5 6464126#6 6464126#7 6464126#7.50 22917113#2 22917113#3 256994205#1 -185485132#6 -185485132#6.52 -185485132#4 6464126#11 6464126#11.50 6494975#2 243349338#5"/>
</vehicle>
<vehicle id = "veh18" type= "veh_passenger" depart="14420" >
<route edges =" 817434294 817434294.10 817434294.36 817434294.44 817434294.63 817434294.119 816616072#4 816616072#4.7 816616072#4.62 816616072#4.121 6430729#0 6430729#0.7 6430729#0.86 -813722270#4 -813722270#4.8 -813722270#4.54 -813722270#4.55 -813722270#4.87 -813722270#4.122 -816616073#1 -816616073#1.7 -569505974#1 -569505974#1.6 -569505974#1.33 -569505976#2 -569505976#2.9 -569505976#2.88 -569505976#2.115 -569505976#2.119 -569505978#1 -569505978#1.10 -569505979 -569505979.32 -569505979.79 -395714916#1 -395714916#1.12 -568043367 -568043367.41 -568043367.79 893866065#0 893866065#0.10 893866065#0.66 893866065#0.92 893866065#3 893866065#3.6 893866065#3.48 893866065#3.88 -353690148#6 -353690148#6.8 -353690148#6.122 893866060#8 893866060#8.7 893866060#8.65 893866060#8.89 6464138#0 6464138#0.7 6464138#0.53 6464138#0.92 6464138#4 6464138#4.6 6464138#4.51 6464138#4.88 6464138#8 6464138#8.7 6464138#8.49 6464138#8.88 -6512920#5 -6512920#5.6 -6512920#5.9 -6512920#5.119 -6512920#5.124 -6512920#3 -6512920#3.8 -6512920#3.9 -6512920#3.19 -6512920#3.59 -6512920#3.92 486874837#0 -6481166#8 -6481166#8.162 -6481166#6 -6481166#5 6507809#3 6507809#4 6515975#6 -6467507#5 -6467507#5.50 6447971#6 6463532#0 6463532#0.49 6463532#2 6463532#2.50 -6380913#7 -6380913#7.22 -6380913#5 6507809#7 6507809#7.46 6507809#7.87 6516509#11 6516509#11.6 6516509#11.34 6516509#11.86 169917351#12 169917351#12.9 169917351#12.42 169917351#12.90 6360239#4 6360239#4.5 6360239#4.44 6360239#4.86 6507809#13 6507809#13.9 6507809#13.77 -6452520#5 -6452520#5.4 -6452520#5.85 169917351#19 169917351#19.6 169917351#19.71 6523501#3 6523501#3.6 6523501#5 6523501#5.201 926425191#0 926425191#0.5 926425191#2 926425193#2 926425193#2.6 926425193#2.94 926425193#2.182 926425193#2.204 926425193#2.206 -185485127#3 -185485127#3.10 -6494970#4 -6494970#4.172 -6494970#2 -6494970#2.4 -6494970#2.100 6358721#0 6358721#0.9 -6415147#3 6497081#2 6497081#2.38 6497081#2.47 6497081#2.53 6497081#2.60 6497081#2.67 6497081#2.70 6497081#2.74 6497081#2.81 6497081#2.120 6497081#6 6497081#6.44 6497081#8 -6371720#2 -6371720#1 -6371720#1.81 460418987#2 460418987#3 460418987#3.91 22917667#0 22917667#0.7 22917667#0.103 22917667#3 22917667#3.6 22917673#5 22917673#5.15 22917673#5.76 -795846818#7 -795846818#7.6 -795846818#7.174 22917670#10 22917670#10.5 22917670#10.34 481291010#3 481291010#3.6 481291010#3.100 369455641#1 369455641#1.28 369455641#1.78 -512126023#7 -512126023#7.8 -512126023#7.19 -512126023#7.31 -512126023#7.44 -512126023#7.91 -512126023#7.107 -512126023#7.111 -512126023#7.245 -512126023#2 -512126023#2.37 -512126023#2.47 6513107#0 6513107#0.9 6513107#0.116 6513107#0.121 6433087#0 6433087#0.4 6433087#0.9 -754699003#6 -754699003#6.36 -754699003#4 -754699003#4.5 -6367253#5 -6496652#5 -6496652#5.73 -6351337#2 -6351337#2.7 -6351337#0 -6467368#0 -185483738#2 -185483738#2.93 -6371720#5 -6371720#5.41 157167355#0"/>
</vehicle>
<vehicle id = "veh19" type= "veh_passenger" depart="14420" >
<route edges =" -814326475#2 -814326475#2.9 -814326475#2.24 -814326475#2.41 -814326475#2.70 -814326475#2.91 -6456052#5 -6456052#5.10 -6456052#5.36 -6456052#5.120 -6456052#1 -6456052#1.10 -6456052#1.62 -337673342#0 6343890#0 6343890#0.54 6343890#0.56 6343890#0.58 6343890#0.59 6343890#0.61 -6475815#6 -6475815#6.16 -6475815#4 -6475815#3 -6475815#3.2 -6475815#3.17 -6475815#3.46 -428089348#3 -428089348#3.15 -428089348#3.21 -428089348#3.28 -353690151#5 -353690151#5.11 -353690151#5.12 -353690151#5.26 -353690151#5.83 -353690151#5.102 -293753571#3 -293753571#3.3 -293753571#3.7 -293753571#3.21 -369877031#7 -369877031#7.10 -369877031#7.98 -369877031#7.191 -749622503#8 -749622503#8.7 -749622503#8.63 -749622503#8.83 -749622503#4 -749622503#4.84 -749622503#2 -749622503#2.9 -749622503#2.29 -749622503#2.64 -749622503#2.84 -369877039 -369877039.36 -369877039.55 -428088903#1 -428088903#1.15 428231560#0 428231560#0.10 338073582#0 338073582#0.20 -6502980#13 -6502980#13.10 -6502980#13.20 -6502980#13.36 -6502980#13.49 -6502980#13.55 -6502980#13.82 -6502980#7 -6502980#7.6 -6502980#7.48 -6502980#7.86 -6502980#3 -6502980#3.7 -6502980#3.69 -6502980#3.84 347094711#0 347094711#0.7 347094711#0.20 347094711#0.38 347094711#0.50 347094711#0.69 347094711#0.73 347094711#0.74 347094712#0 347094712#0.21 -332223489#3 -332223489#3.4 -332223489#3.15 -332223489#3.17 -332223489#3.21 -401497115 -401497115.113 -401497115.170 -401497115.214 -537677478#2 -537677478#2.10 -537677478#2.11 -537677478#2.28 -537677478#2.36 -6456046#3 -6456046#3.6 -6456046#3.36 -6456046#3.42 -6456046#3.49 -6456046#3.56 -6456046#3.62 -6456046#3.66 -6456046#3.71 -6456046#3.76 -6456046#3.92 -6456046#3.102 -6456046#3.109 -6456046#3.112 440890310 440890310.65 425646003#0 425646003#0.15 6476922#0 6476922#0.13 6476922#0.24 6476922#0.37 6476922#0.60 6476922#0.67 6413383#0 6413383#0.1 6413383#0.3 6413383#0.6 6413383#0.18 6413383#0.26 6413383#0.47 428233432#0 428233432#0.11 428233432#0.22 332223487#0 332223487#0.16 332223487#0.62 332223487#0.98 893872038 893872038.9 893872038.14 893872038.97 893872038.123 893872038.129 893872038.134 347092915#0 347092915#0.8 347092915#0.32 347092915#0.44 347092915#0.89 347092915#0.182 6506833#11 6506833#11.9 6506833#11.45 6506833#11.74 6506833#11.79 22760519#0 22760519#0.7 22760519#0.27 22760519#3 22760519#3.9 22760519#3.21 22760519#3.33 22760519#3.91 965874292#0 965874292#0.8 965874292#0.88 965874292#3 965874292#3.1 965874292#3.48 965874292#3.59 965874292#3.86 965874292#7 965874292#7.8 965874292#7.41 965874292#10 965874292#10.35 965874292#12 965874292#12.8 965874292#12.69 158123767#0 158123767#0.10 158123767#0.11 158123767#0.50 158123767#0.74 158123767#0.86 158123767#0.115 158123767#0.122 158123767#0.134 158123767#0.139 158123767#0.166 795669781 795669781.52 795669781.56 460421481#1 460421481#1.61 460421481#1.85 256997441#0 256997441#0.11 256997441#0.18 256997441#0.62 -14374224#3 -14374224#3.37 -14374224#3.41 -14374224#3.85 295783215#1 -6489809#2 -6489809#1 -6489809#1.47 256996977#4 256996977#4.22 256996977#4.24 256996977#4.38 6472293#0 6472293#0.6 6472293#0.29 6472293#2 -185485127#6 -185485127#5 -185485127#5.56 -336908264#1 -336908264#1.10 -336908264#1.13 -336908264#1.35 -336908264#1.123 -336908264#1.210 -926425193#1 -926425193#1.9 -926425193#1.20 -926425193#1.31 -926425193#0 -926425193#0.24 -926425193#0.35 -926425193#0.76 -926425193#0.112 -428246846 -428246846.4 -428246846.17 -428246846.29 8071924#0 8071924#0.13 8071924#1 8071924#1.18 8071924#1.30 6472293#6 6472293#6.106 795671506#0 795671506#0.46 -6501822#8 -6501822#8.7 6441276#0 6441276#0.41 359671039#0 359671039#1 359671039#2 243349338#10 243349338#11 243349338#11.79 -6506505#7 -6506505#7.50 -6464130#4 -6449970#10 6336174#4 6336174#5 6336174#6 -243349941#3 -243349941#2 -6425683#3 -6425683#3.40 -6425683#1 -6425683#0 -6449970#5 -6449970#4 6463541#2 6463541#2.38 6463541#2.41 -6506505#1 -6506505#1.22 -6467510#1 -6467510#1.38 -6449970#2 -185485127#11 -185485127#10 -6501822#2 -6501822#1 -6501822#0 -6501822#0.165 256996977#8 620762211#0 620762211#0.4 620762211#0.8 620762211#0.77 620762211#1 620762211#1.10 620762211#1.36 620762211#1.73 620762211#1.115 620762211#1.170 620762211#1.178 -256997441#8 -256997441#8.6 6354836#4 6354836#5 6354836#5.54 6354836#7 6354836#7.92 6467368#4 6354794#0 -6485999#4 -6485999#4.7 -6367253#1 -6367253#1.137 -6467368#2 -661086629#2 -661086629#2.7 -661086629#0 -185483733 -6414318#4 -157167355#0"/>
</vehicle>
<vehicle id = "veh20" type= "veh_passenger" depart="18025" >
<route edges =" -813722269#3 -813722269#3.7 -813722269#3.48 -813722269#3.84 -813722269#3.86 620762213#0 620762213#0.9 620762213#0.88 620762212#0 620762212#0.8 620762212#0.52 620762212#3 -6430729#5 -6430729#5.49 -6430729#5.89 -6430729#2 -6430729#2.11 -6430729#2.90 816616072#8 816616072#8.6 816616072#8.121 158882495#0 158882495#0.6 171739207#0 171739207#0.49 160552467#0 337668916#8 337668916#8.47 6403874#1 6403874#1.38 6403883#1 158882505#7 158882505#8 8111709#0 8111709#0.47 -6505136#12 -6505136#12.73 -6505136#12.84 -6505136#12.102 -6505136#12.111 -6505136#12.122 6384359#4 6384359#4.13 6384359#4.31 6384359#4.51 -6464042#2 -6464042#2.80 -6464042#1 -6464042#1.52 292812445#5 292812445#5.45 6513783#0 6513783#1 6513783#1.64 6463017#5 6463017#6 6463017#6.48 -6386837#0 337739268 337739268.124 337739267#0 337739267#1 -481291488#10 -481291488#10.44 -481291488#10.61 -481291488#10.85 -481291488#10.132 -481291488#10.142 243349944#7 243349944#8 -801995081#5 -801995081#5.197 -801995081#5.209 256994206#0 256994206#0.8 256994206#0.43 256994206#0.60 396055524#0 396055524#0.9 396055524#0.30 396055524#0.54 396055524#0.65 6360256#5 6447445#3 6447445#3.51 -22917113#4 256994205#1 256994205#2 256994205#2.24 256994205#2.72 256994205#3 428246847#0 428246847#0.8 428246847#0.22 6386110#0 6386110#0.16 6386110#0.25 6386110#0.55 -243349338#6 -243349338#6.14"/>
</vehicle>
<vehicle id = "veh21" type= "veh_passenger" depart="18025" >
<route edges =" -816616074#1 -816616074#1.10 -816616074#1.14 -816616074#1.119 428341734#4 428341734#4.8 428246439#0 428246439#0.14 428246438#0 428246438#0.8 428246440#0 428246440#0.62 800744529#0 800744529#0.7 800744529#0.52 800744529#0.89 825336588#0 825336588#0.7 96029553#0 96029553#0.9 96029553#0.15 96029553#0.59 8071900#0 8071900#0.7 8071900#0.18 8071900#0.88 -22917111#26 -22917111#26.7 -22917111#26.41 -22917111#26.121 -22917111#22 -22917111#22.9 -22917111#22.144 -22917111#19 -22917111#19.8 -22917111#19.123 -22917111#19.125 -22917111#19.126 6464138#4 6464138#4.6 6464138#4.51 6464138#4.88 6464138#8 6464138#8.7 6464138#8.49 6464138#8.88 6464138#12 6464138#12.51 6464138#14 -481291488#1 6464126#0 6464126#0.46 6464126#0.49 460419011#2 40416132#1 40416132#1.90 256994206#0 256994206#0.8 256994206#0.43 256994206#0.60 460419028#0 460419028#0.11 460419028#0.49 460419028#0.79 460419028#0.95 460419028#3 460419028#4 243339793#5 6360256#1 6360256#1.7 6464126#7 6464126#7.50 6464126#9 6464126#9.46 185485132#4 243349338#3 243349338#3.49 243349338#5"/>
</vehicle>
<vehicle id = "veh22" type= "veh_passenger" depart="18025" >
<route edges =" 817434294 817434294.10 817434294.36 817434294.44 817434294.63 817434294.119 6343949#0 6343949#0.7 6343949#0.86 -816616073#1 -816616073#1.7 -569505974#1 -569505974#1.6 -569505974#1.33 -569505976#2 -569505976#2.9 -569505976#2.88 -569505976#2.115 -569505976#2.119 -569505978#1 -569505978#1.10 -569505979 -569505979.32 -569505979.79 -395714916#1 -395714916#1.12 -568043367 -568043367.41 -568043367.79 -293775903#2 -293775903#2.10 -293775903#2.37 -293775903#2.89 -293775903#2.118 -475161306#1 -475161306#1.9 -475161306#1.92 -475161306#1.120 353690155#0 353690155#0.10 353690155#0.51 353690155#0.58 353690155#0.90 353690157#0 353690157#0.5 353690157#0.19 353690157#0.47 353690157#0.72 353690157#0.87 -353690147#3 -353690147#3.7 -353690147#3.110 -353690147#3.122 -486864438#4 -486864438#4.7 -486864438#4.89 -243338979#12 -243338979#12.10 -243338979#12.11 -243338979#12.62 436480246#0 436480246#0.12 436480246#0.32 436480246#0.41 436480246#0.55 6372377#0 6372377#0.23 -436480245#2 -436480245#2.30 -436480245#0 -436480245#0.21 -436480245#0.32 -436480245#0.59 353690159#9 353690159#9.9 353690159#9.28 353690159#9.40 353690159#9.53 353690159#9.88 486844942#0 486844942#0.5 486844942#0.15 486844942#0.87 -6476327#15 -6476327#15.10 -6476327#15.38 -6476327#15.65 -6476327#11 893868547#0 893868547#0.8 893868547#0.91 876005346#0 876005346#0.6 876005346#0.88 876005346#3 -22917110#5 -22917110#5.7 -22917110#5.84 901474739#3 901474739#3.6 901474739#3.41 901474739#3.71 6440364#7 6440364#7.7 6440364#7.83 901474741#0 901474741#0.6 901474741#0.85 901474741#0.87 6467507#0 6467507#0.7 6467507#0.88 6467507#3 6447971#6 6447971#7 263669069#1 263669069#1.41 263669069#1.48 263669069#1.70 -6515975#8 -6515975#7 -6515975#6 6507809#5 6507809#5.51 -6380913#4 -169917351#8 -169917351#8.49 -6515975#3 -6515975#3.6 -6515975#3.44 -6515975#3.102 256996973#0 256996973#0.33 256996973#0.45 256996973#0.49 256996975#0 256996975#0.50 256996975#0.62 256996975#0.65 256996975#0.91 256996976#0 256996976#0.11 256996976#0.20 256996976#0.46 256996976#0.79 6487445#0 6487445#0.8 6415147#0 6415147#0.61 6449462#3 6449462#3.7 6449462#3.50 6449462#3.60 6449462#3.72 6449462#3.87 795669782#0 795669782#0.54 795669782#2 6371720#2 6371720#3 157167355#0"/>
</vehicle>
<vehicle id = "veh23" type= "veh_passenger" depart="18025" >
<route edges =" -814326475#2 -814326475#2.9 -814326475#2.24 -814326475#2.41 -814326475#2.70 -814326475#2.91 -723013181#2 -723013181#2.9 -723013181#2.18 -723013181#2.38 -723013181#0 -332601014#3 -332601014#3.31 -332601014#3.36 -332601014#3.42 65588113#0 65588113#0.12 65588113#0.104 65588113#0.135 65588113#0.237 65588113#0.250 65588113#0.253 332601013#0 332601013#0.7 332601013#0.16 332601013#0.35 332601013#0.52 332601013#0.55 332601013#0.63 658284001#0 658284001#0.6 658284001#0.39 658284001#0.53 -658284000#1 -658284000#1.15 -658284000#1.52 95600805#0 95600805#0.117 331930455#0 331930455#0.9 331930455#0.42 331930455#0.49 331930455#0.60 331930455#0.86 623536799#0 623536799#0.9 623536799#0.30 623536799#0.39 623536799#0.58 623536799#0.61 623536799#0.92 6400834#0 6400834#0.8 6400834#0.121 65588084#0 65588084#0.8 65588084#0.88 6346526#0 6346526#0.6 6346526#0.99 6346526#0.121 6346526#4 6346526#4.7 -171739214#11 6368665#0 6368665#0.4 6368665#0.6 6368665#0.48 -158882505#1 -158882505#1.37 621283351#0 621283351#0.54 621283351#0.62 6464391#0 6464391#0.12 6464391#0.77 6464391#3 6464391#3.6 6464391#3.75 6358524#6 6358524#6.5 6358524#6.55 6414229#12 752851600#11 752851600#11.84 -6346308#9 -6346308#9.33 -6346308#9.41 6358524#12 -8071894#1 -8071894#0 -6374789#13 -6346308#5 -6346308#5.48 -749754758#9 -749754758#9.120 -749754758#7 -749754758#7.3 -749754758#7.122 -749754758#4 -749754758#4.4 -749754758#4.120 6384350#8 6384350#8.4 6384350#8.47 6384350#8.86 -6374789#5 -6374789#5.9 -6374789#5.118 749754754#1 749754754#1.14 749754754#1.29 -6358498#1 -6358498#1.87 -6474762#2 -6474762#2.6 -6474762#2.9 -6474762#2.12 -6474762#1 -6474762#1.50 -393047811 621088608#0 621088608#0.43 621088608#0.48 6479778#0 6479778#0.15 -6349048#2 -6349048#2.8 -6349048#2.90 6366765#21 6366765#21.3 6366765#21.24 6366765#21.30 6366765#21.34 6366765#21.38 6366765#21.40 6366765#21.42 6366765#21.43 6366765#21.72 460423542#0 460423542#0.9 6430733#0 6430733#1 -6511393#8 6343952#2 -6349123#7 -6349123#6 -6349123#6.48 -6349123#6.62 -6349123#6.115 723052304#1 723052304#1.70 -6461453#2 -6461453#2.11 -6461453#2.114 -6461453#2.116 -6461453#2.117 -6461453#2.120 -912290518#2 -912290518#2.2 -912290518#2.24 -912290518#2.91 -912290518#2.94 158612542#0 158612542#0.8 158612542#0.40 158612542#0.49 158612542#0.58 158612542#0.111 6447455#2 6447455#2.50 6447455#2.88 6447455#2.94 607690679#0 607690679#0.3 607690679#0.8 607690679#0.15 607690679#0.94 -6456052#1 -6456052#1.10 -6456052#1.62 -607691082#1 -607691082#0 -6475815#3 -6475815#3.2 -6475815#3.17 -6475815#3.46 -428089348#3 -428089348#3.15 -428089348#3.21 -428089348#3.28 -353690151#5 -353690151#5.11 -353690151#5.12 -353690151#5.26 -353690151#5.83 -353690151#5.102 -353690151#2 -353690151#2.9 -353690151#2.22 -353690151#2.24 -353690151#2.39 -353690151#2.72 -353690151#2.92 -433500388#1 -433500388#1.11 -433500388#1.46 -433500388#1.73 -433500388#1.113 -433500388#1.115 -428088900#1 -428088900#1.10 -428088894#1 -428088894#1.25 -428088883#1 -428088883#1.15 -428088897 -428088888 -737711647 -332223490#1 -332223490#1.19 6514305#0 6514305#0.3 6514305#0.4 6514305#0.9 6514305#0.14 6514305#0.34 6514305#0.54 -6456044#8 -6456044#8.8 -6456044#8.104 6463530#6 6463530#6.6 6463530#6.49 6463530#6.89 -6343878#8 -6343878#8.7 -6343878#8.85 -347094714#3 -347094714#3.9 -347094714#3.49 -347094714#3.92 6467490#0 6467490#0.7 6467490#0.49 6467490#0.78 -401497115 -401497115.113 -401497115.170 -401497115.214 -428233435 -460425668 -460425668.5 -6457806#2 -6457806#2.21 -6457806#2.25 -6457806#2.30 6476922#0 6476922#0.13 6476922#0.24 6476922#0.37 6476922#0.60 6476922#0.67 32121988#0 32121988#0.9 32121988#0.30 32121988#0.39 32121988#0.51 32121988#0.83 6397352#0 6397352#0.2 6397352#0.5 6397352#0.9 6397352#0.56 6397352#0.105 -617435761#4 -617435761#4.55 -617435761#4.98 -617435761#4.117 -617435761#4.130 -617435760#4 -617435760#4.12 -617435760#4.51 -617435760#4.53 6343878#0 6343878#0.6 6343878#0.85 6343878#0.89 893868549#3 893868549#3.4 893868549#3.48 893868549#3.84 893868549#3.86 893868549#7 893868549#7.9 893868549#7.13 893868549#7.94 893868549#7.109 893868549#7.125 893868549#7.184 893868549#12 893868549#12.7 893868549#12.90 901474739#0 901474739#0.7 901474739#0.111 -22917110#2 -22917110#2.6 -22917110#2.86 -6346769#4 -6346769#4.6 -6346769#4.27 -6346769#4.65 -6346769#4.102 256996974#3 256996974#3.6 256996974#3.29 256996974#3.56 256996974#3.86 256996974#6 256996974#6.9 256996974#6.21 256996974#6.40 256996974#6.89 243338978#0 243338978#0.9 243338978#0.58 243338978#0.71 -22917663#18 -22917663#18.20 -22917663#18.54 -22917663#18.91 6465130#3 6465130#3.8 6465130#3.46 6465130#3.84 347092915#10 347092915#10.9 347092915#10.68 347092915#10.90 243338978#7 243338978#7.8 243338978#7.38 243338978#7.45 243338978#7.74 965874293#0 965874293#0.9 965874293#0.40 -49394452#7 -49394452#7.8 -49394452#7.188 6506833#18 6506833#18.45 -749863323#3 -749863323#3.10 -749863323#3.85 -749863323#3.126 792010738#0 792010738#0.4 792010738#0.9 792010738#0.19 -749863325#1 -749863325#1.6 -749863325#1.16 -749863325#1.39 -749863325#1.43 -749863325#1.51 -749863325#1.75 -749863325#1.82 -749863325#1.101 -749863325#1.117 -749863325#1.139 -749863325#1.157 -749863325#1.165 -749863325#1.172 -749863325#1.175 -749863325#1.187 -749863325#1.189 -749863325#1.199 -749863325#1.212 -749863325#1.248 -749863325#1.271 500021854#0 500021854#0.9 500021854#0.38 500021854#0.82 6477649#6 6477649#6.9 6477649#6.30 6477649#6.32 6477649#6.45 6477649#6.63 6477649#6.92 6477649#6.106 6477649#6.147 6477649#6.175 6477649#6.199 6477649#6.205 6477649#6.230 6477649#6.286 6477649#6.306 6477649#6.322 263712957#10 263712957#10.9 263712957#10.78 263712957#13 263712957#13.7 263712957#13.54 263712957#13.186 844067888#0 844067888#0.8 844067888#0.63 844067888#0.137 844067888#0.187 -6388742#11 -6388742#11.8 -6388742#11.30 -6388742#11.46 -6388742#11.67 -6388742#11.87 -6388742#5 -6388742#5.6 -6388742#5.38 -6388742#2 -6388742#2.30 -6388742#2.38 965874292#7 965874292#7.8 965874292#7.41 965874292#10 965874292#10.35 965874292#12 965874292#12.8 965874292#12.69 158123767#0 158123767#0.10 158123767#0.11 158123767#0.50 158123767#0.74 158123767#0.86 158123767#0.115 158123767#0.122 158123767#0.134 158123767#0.139 158123767#0.166 795669781 795669781.52 795669781.56 6497081#6 6497081#6.44 6414318#3 -157167355#0"/>
</vehicle>
<vehicle id = "veh24" type= "veh_passenger" depart="21630" >
<route edges =" -813722269#3 -813722269#3.7 -813722269#3.48 -813722269#3.84 -813722269#3.86 620762213#0 620762213#0.9 620762213#0.88 57883609#0 57883609#0.6 57883609#0.57 65588100#0 65588100#0.63 65588100#2 65588100#2.20 65588100#2.57 6430729#9 6430729#9.48 6430729#11 6430729#11.51 65588093#3 292812445#3 292812445#3.49 -6440348#14 6430729#15 6430729#15.48 525497324#8 6513783#0 962517344 962517344.33 -6381494#0 -620762224#1 -620762224#0 343521145#0 343521145#0.47 343521145#0.69 337739267#0 337818462 337818462.3 337818462.6 337739271#1 337739271#1.6 337739269#0 337739269#1 337739269#1.30 337739269#3 337739269#3.69 396055523#5 396055523#5.8 396055523#5.42 243349945#0 243349945#0.6 243349945#0.83 243349945#3 243349945#3.5 243349945#3.45 243349945#3.49 243349945#6 243349945#6.48 243349945#6.88 243349945#9 243349945#9.50 243349945#11 243349945#11.47 243349942#1 243349942#1.25 243349942#2 -805680044#10 6356676#0 6463035#7 6463035#8 6463035#8.49 6463035#10 6463035#10.48 6353177#4 6353172#0 40416130#3 40416130#3.42 40416130#3.45 40416130#6 -6369950#3 -170683665#13 -6521828#4 -6521828#3 -6521828#3.7 -6521828#3.107 -6521828#3.133 -359671039#10 -359671039#10.86 805658294#9 805658294#9.71 808266757#0 808266757#0.7 808266757#1 808266757#2 808266757#2.40 808266757#4 808266757#4.120 808266757#6 6468802#6 6341490#0 6341490#0.24 6341490#0.57 6341490#0.93 6341490#0.128 6463022#7 6463022#7.24 6463022#7.39 6463022#7.50 8071849#3 243352637#0 243352637#1 243352637#1.16 243352637#1.33 243352637#1.49 243352637#1.68 -6344425#1 -6344425#1.37 -6344425#1.51 -6344425#1.108 -6344425#1.115 -6344425#1.134 -6430750#2 -6430750#2.7 -6430750#2.19 8071849#0 8071849#0.19 8071849#0.43 8071849#0.66 -6506465 -6506465.18 -6506465.32 -6506465.45 -6506465.60 -6506465.82 -6506465.93 -6506465.103 -6506465.112 -6506465.131 -6506465.146 -337698847#3 -337698847#3.12 -337698847#3.24 -337698847#3.38 -337698847#2 -337698847#2.101 -337698847#2.115 -6343958#1 -6468802#4 -6468802#4.71 -6468802#4.126 -6468802#4.199 -6468802#4.202 -6468802#4.205 -6468802#4.210 -6468802#4.250 -6468802#4.257 -6468802#4.265 -6447445#27 -6447445#27.41 -6447445#27.75 336908257#7 -243349944#32 -243349944#31 -243349944#31.42 -243349944#29 -243349944#28 -352434874#1 6447445#17 6447445#18 6447445#18.41 6447445#18.62 -243349941#8 -243349941#7 -243349941#7.26 -243349941#5 -6464130#6 -6464130#5 -6464130#4 -6449970#10 -6449970#9 -6449970#8 -259277920#0 -259277920#0.32 -259277920#0.50 -6396312#4 -6396312#4.43 -185485117#2 -185485117#1 6472293#4 6472293#4.162 8071924#4 6501822#7 6441276#0 6441276#0.41 359671039#0 359671039#1 -6464130#1 -6464130#1.43 6501822#12 160624556 160624556.10 438895608#0 438895608#0.54 438895608#1 532125609#0 -6447445#15 -6447445#14 160624558#0 160624558#0.9 160624558#0.16 160624558#1 -243349945#16 -243349945#16.50 -6472289#2 -243349944#22 -243349944#22.50 -22760521#3 -22760521#2 -22760521#2.81 -22760521#2.121 428246847#0 428246847#0.8 428246847#0.22 6386110#0 6386110#0.16 6386110#0.25 6386110#0.55 -243349338#6 -243349338#6.14"/>
</vehicle>
<vehicle id = "veh25" type= "veh_passenger" depart="21630" >
<route edges =" -816616074#1 -816616074#1.10 -816616074#1.14 -816616074#1.119 428341734#4 428341734#4.8 428246439#0 428246439#0.14 428246438#0 428246438#0.8 428246440#0 428246440#0.62 800744529#0 800744529#0.7 800744529#0.52 800744529#0.89 -349901821 349901822#0 349901822#0.9 96029553#0 96029553#0.9 96029553#0.15 96029553#0.59 -893866066#2 -893866066#2.7 -893866066#2.122 32135548#0 32135548#0.6 32135548#0.48 32135548#0.53 32135548#0.64 32135548#0.89 32135548#0.90 32135548#5 32135548#5.7 32135548#5.49 32135548#5.88 -6440371#11 -6440371#11.12 -6440371#11.144 293775902#8 293775902#8.6 293775902#8.49 293775902#8.91 -6512920#7 -6512920#7.4 -6512920#7.122 -6512920#7.124 6464138#12 6464138#12.51 -6481166#10 -6481166#10.6 -6481166#10.8 -6481166#10.120 353690154#15 353690154#15.50 481291488#0 481291488#0.9 481291488#0.23 6464126#0 6464126#0.46 6464126#0.49 -460419011#1 -460419011#1.97 243339793#2 243339793#2.49 801995081#0 6464126#5 6464126#6 -6360256#1 -6360256#1.102 243339793#6 243339793#6.50 243339793#6.74 -22917112 481291012#0 481291012#0.24 481291012#0.32 185485132#2 185485132#2.104 243339793#11 243339793#11.47 6494975#1 6494975#1.9 6494975#2 243349338#5"/>
</vehicle>
<vehicle id = "veh26" type= "veh_passenger" depart="21630" >
<route edges =" 817434294 817434294.10 817434294.36 817434294.44 817434294.63 817434294.119 6343949#0 6343949#0.7 6343949#0.86 813722270#0 813722270#0.7 813722270#0.42 813722270#0.74 813722270#0.75 813722270#0.121 6430729#3 6430729#3.9 6430729#3.48 -620762212#3 -620762212#2 -620762212#2.76 -620762212#2.120 -800744530#5 -800744530#5.9 -800744530#5.19 -800744530#5.73 -800744530#5.84 -800744530#5.118 -800744528#1 -800744528#1.8 -800744528#1.16 -800744528#1.37 -800744528#1.72 -337673339 -337673337 185882764 185882764.13 185882764.14 185882765 185882765.16 185882765.26 185882765.30 185882765.31 -243338979#28 -243338979#28.13 -243338979#28.49 -243338979#28.142 -243338979#28.143 -243338979#25 -243338979#25.8 -243338979#25.64 -243338979#25.77 -243338979#25.120 893866060#4 893866060#4.6 893866060#4.48 893866060#4.89 893866060#8 893866060#8.7 893866060#8.65 893866060#8.89 6464138#0 6464138#0.7 6464138#0.53 6464138#0.92 -22917111#16 -22917111#16.4 -22917111#16.5 -22917111#16.7 -22917111#16.120 -22917111#16.122 353690154#4 353690154#4.6 353690154#4.49 353690154#4.54 353690154#4.87 353690154#8 353690154#8.7 353690154#8.42 353690154#8.50 353690154#8.92 353690154#12 353690154#12.6 353690154#12.32 -6481166#9 -6481166#9.8 486874837#1 486874837#2 486874837#2.47 -460419014 -460419014.67 6425689#2 6425689#2.48 -6380913#13 -6380913#12 -6380913#11 -6380913#11.53 -6380913#7 -6380913#7.22 -6467507#7 -6467507#7.46 -6515975#6 -6515975#5 -6515975#5.48 169917351#7 169917351#7.49 169917351#9 169917351#9.48 169917351#9.87 6516509#15 6516509#15.7 6516509#15.35 6516509#15.48 6516509#15.68 6516509#15.70 6516509#15.79 6516509#15.84 6516509#15.98 6516509#15.101 256996976#0 256996976#0.11 256996976#0.20 256996976#0.46 256996976#0.79 256996976#3 256996976#3.7 256996976#3.76 6449462#0 6449462#0.9 6449462#0.46 6415147#2 6415147#3 6415147#4 -428247193#2 -428247193#2.56 -428247193#2.61 -428247193#2.96 -428247193#2.117 -428247193#2.121 -428247193#2.140 -428247193#2.154 -428247195 -428247195.5 -428247194#1 -428247194#1.9 -428247194#1.28 -157167355#3 -157167355#3.5 -157167355#3.43 -6414318#3 6497081#8 6371720#3 157167355#0"/>
</vehicle>
<vehicle id = "veh27" type= "veh_passenger" depart="21630" >
<route edges =" -814326475#2 -814326475#2.9 -814326475#2.24 -814326475#2.41 -814326475#2.70 -814326475#2.91 -6456052#5 -6456052#5.10 -6456052#5.36 -6456052#5.120 -6456052#1 -6456052#1.10 -6456052#1.62 -607691082#1 -607691082#0 -6475815#3 -6475815#3.2 -6475815#3.17 -6475815#3.46 -428089348#3 -428089348#3.15 -428089348#3.21 -428089348#3.28 332223491#0 332223491#0.12 6438604#0 6438604#0.3 6438604#0.6 6438604#0.8 6438604#0.10 6438604#0.11 6438604#0.13 6438604#0.44 6438604#0.60 -22927969#14 -22927969#14.8 -22927969#14.47 -22927969#14.89 -22927969#10 -22927969#10.10 -22927969#10.51 -22927969#10.91 -6511397#3 -6511397#3.9 -6511397#3.38 -6511397#3.82 428089354#0 428089354#0.9 428089354#0.35 428089352#0 428089352#0.34 -293753570#2 -293753570#2.9 -293753570#2.83 293753571#0 293753571#0.5 293753571#0.20 293753571#0.24 -353690151#2 -353690151#2.9 -353690151#2.22 -353690151#2.24 -353690151#2.39 -353690151#2.72 -353690151#2.92 -433500388#1 -433500388#1.11 -433500388#1.46 -433500388#1.73 -433500388#1.113 -433500388#1.115 -428088900#1 -428088900#1.10 -428088894#1 -428088894#1.25 -532166310#2 -532166310#2.3 -532166310#2.13 -369877039 -369877039.36 -369877039.55 -428088903#1 -428088903#1.15 428231018#0 428231018#0.12 428231018#0.30 465971497#0 465971497#0.10 465971497#0.34 369877037#0 369877037#0.9 369877037#0.83 537686684#0 537686684#0.43 537686684#0.53 65588108#0 65588108#0.15 65588108#0.50 6463530#0 6463530#0.2 6463530#0.8 6463530#0.13 6463530#0.54 6463530#0.95 -6456044#5 -6456044#5.7 -6456044#5.86 6467490#0 6467490#0.7 6467490#0.49 6467490#0.78 -401497115 -401497115.113 -401497115.170 -401497115.214 -428233435 -460425668 -460425668.5 -6457806#2 -6457806#2.21 -6457806#2.25 -6457806#2.30 6465162#0 6465162#0.2 6465162#0.6 6465162#0.11 6465162#0.36 428233434 428233434.31 428233434.58 -739874554#2 -739874554#2.15 -739874554#2.40 -739874554#2.60 -739874554#2.67 622519661 622519661.8 739874553#0 739874553#0.66 739874553#0.80 739874553#0.88 333370569#0 333370569#0.6 333370569#0.13 333370569#0.37 333370569#0.43 333370569#0.66 333370569#0.94 333370569#0.155 333370569#0.178 333370566#0 333370566#0.32 332223494#0 332223494#0.18 332223494#0.35 332223494#0.144 332223494#0.171 6506833#15 6506833#15.8 6506833#15.10 6506833#15.35 49394452#5 49394452#5.6 49394452#5.186 965874293#2 965874293#2.45 760645197#0 760645197#0.6 760645197#0.45 760645197#0.84 844067889#0 844067889#0.8 844067889#0.47 844067889#0.85 844067889#4 844067889#4.8 844067889#4.67 844067889#4.77 844067889#4.80 -8044210#8 -8044210#8.8 -8044210#8.117 6383358#0 6383358#0.7 6383358#0.143 -22917669#12 -22917669#12.38 6491356#4 6491356#4.5 6491356#4.177 6491356#4.178 6496658#0 6496658#0.30 6496658#0.31 -260318962#3 -260318962#3.5 -260318962#1 -260318962#1.73 -6388742#24 -6388742#24.5 -6388742#24.72 -6388742#21 -6388742#21.6 -6388742#21.71 -8044210#1 -8044210#1.9 -8044210#1.90 -8044210#1.95 6445481#0 6445481#0.3 6445481#0.6 6445481#0.68 6445481#0.72 -6371699#12 -6371699#12.3 -6371699#12.7 -6371699#12.71 -6371699#12.94 -6371699#12.106 -6388742#15 -6388742#15.8 -6388742#15.46 -6388742#15.84 263712958#0 263712958#0.8 263712958#0.45 263712958#0.101 263712958#0.114 263712958#0.117 263712958#0.119 6445479#0 6445479#0.4 6445479#0.8 6445479#0.186 965874292#10 965874292#10.35 965874292#12 965874292#12.8 965874292#12.69 158123767#0 158123767#0.10 158123767#0.11 158123767#0.50 158123767#0.74 158123767#0.86 158123767#0.115 158123767#0.122 158123767#0.134 158123767#0.139 158123767#0.166 795669782#0 795669782#0.54 6414318#1 6414318#1.86 6414318#3 -157167355#0"/>
</vehicle>
</routes>
