<?xml version="1.0" encoding="UTF-8"?>
<routes xmlns:xsi="http: // www.w3.org/2001/XMLSchema-instance" xsi:noNamespaceSchemaLocation="http: // sumo.dlr.de/xsd/routes_file.xsd">
<vType id="veh_passenger" vClass="passenger"/>

<vehicle id = "veh0" type= "veh_passenger" depart="0" >
<route edges =" -813722269#3 -813722269#3.7 -813722269#3.48 -813722269#3.84 -813722269#3.86 620762213#0 620762213#0.9 620762213#0.88 620762212#0 620762212#0.8 620762212#0.52 6343949#6 6343949#7 6343949#8 6343949#8.52 6343949#10 6343949#10.49 6343949#12 6343949#12.47 -525497324#3 -525497324#2 243349944#4 243349944#4.53 243349944#6 243349944#7 -460419011#3 -460419011#2 6464126#3 6464126#3.49 6464126#5 -460419028#3 243349338#0 243349338#0.18 243349338#1 243349338#2 243349338#3 243349338#3.49 243349338#5"/>
</vehicle>
<vehicle id = "veh1" type= "veh_passenger" depart="0" >
<route edges =" -6457203#16 -6457203#16.59 975126260#0 975126260#0.49 -6505136#16 6368504#5 6368504#5.48 6368504#7 6368504#7.50 -6513783#8 -6513783#7 37657905#3 37657905#3.48 37657905#5 37657905#5.10 37657905#5.46 37657905#7 37657905#7.49 476409329 -6383185#5 6384373#1 6384373#2 6384373#2.45 6384373#2.56 -65588097#1 -65588097#1.119 337818330 6463035#0 6463035#0.14 6463035#0.38 6463035#3 -6495801#0 -185485132#12 -185485132#12.125 -185485132#11 -185485132#11.16 243349945#9 243349945#9.50 -6494975#8 -6494975#7 -6494975#6 -6494975#6.81 256994205#3 428246847#0 428246847#0.8 428246847#0.22 6386110#0 6386110#0.16 6386110#0.25 6386110#0.55 -243349338#6 -243349338#6.14"/>
</vehicle>
<vehicle id = "veh2" type= "veh_passenger" depart="0" >
<route edges =" -6522868 -6403883#7 -6403883#6 -6403883#5 -6403883#4 -6403883#3 -6403883#2 158882505#7 158882505#8 8111709#0 8111709#0.47 8111709#2 8111709#2.49 8111709#4 8111709#4.49 -6513783#5 6384359#8 6384359#9 6384359#9.26 -6381494#3 -6381494#3.43 6463017#6 6463017#6.48 -6386837#0 337739268 337739268.124 337739267#0 337818462 337818462.3 337818462.6 337739271#1 337739271#1.6 337739269#0 -460419011#4 243349944#8 -801995081#5 -801995081#5.197 -801995081#5.209 -801995081#2 -801995081#2.109 -801995081#0 243339793#4 243339793#5 243339793#6 243339793#6.50 243339793#6.74 -22917112 -185485118#1 6514312#0 6514312#0.70 -6523501#6 -6523501#6.6 185485127#1 -6494970#4 -6494970#4.172 -6494970#2 -6494970#2.4 -6494970#2.100 6358721#0 6358721#0.9 6415147#4 6415147#5 6415147#6 6351349#2 6351349#3 6351349#3.107 6351349#5 -185483733 -6414318#4 -157167355#0"/>
</vehicle>
<vehicle id = "veh3" type= "veh_passenger" depart="0" >
<route edges =" 817434294 817434294.10 817434294.36 817434294.44 817434294.63 817434294.119 6343949#0 6343949#0.7 6343949#0.86 6343949#3 6343949#3.9 6343949#3.49 620762212#3 6430729#6 6430729#6.47 6430729#6.48 6430729#9 6430729#9.48 6430729#11 6430729#11.51 6430729#13 6430729#13.48 6430729#15 6430729#15.48 6430729#17 6430729#17.51 -620762224#0 -66558981#7 -66558981#7.65 -66558981#7.83 -66558981#7.105 -66558981#7.123 -66558981#2 -66558981#2.131 -66558981#2.234 525497323#2 525497323#2.81 -481291488#2 -481291488#1 -481291488#0 -481291488#0.69 -481291488#0.82 -6447971#10 -6447971#10.11 -6447971#9 -6447971#8 -6447971#7 -6447971#6 -6447971#5 -6447971#4 169917351#6 169917351#7 169917351#7.49 169917351#9 169917351#9.48 169917351#9.87 169917351#12 169917351#12.9 169917351#12.42 169917351#12.90 -6360239#3 -6360239#3.6 -6360239#3.69 -6360239#3.102 6487445#0 6487445#0.8 6415147#0 6415147#0.61 6449462#3 6449462#3.7 6449462#3.50 6449462#3.60 6449462#3.72 6449462#3.87 795669782#0 795669782#0.54 795669782#2 6371720#2 6371720#3 157167355#0"/>
</vehicle>
<vehicle id = "veh4" type= "veh_passenger" depart="3605" >
<route edges =" -816616074#1 -816616074#1.10 -816616074#1.14 -816616074#1.119 428341734#4 428341734#4.8 428246439#0 428246439#0.14 428246438#0 428246438#0.8 428246440#0 428246440#0.62 800744529#0 800744529#0.7 800744529#0.52 800744529#0.89 825336588#0 825336588#0.7 349901822#2 349901822#2.21 -620762214 -8071898#3 6343949#8 6343949#8.52 6343949#10 6343949#10.49 6343949#12 6343949#12.47 -525497324#3 -525497324#2 243349944#4 243349944#4.53 243349944#6 -481291488#4 -481291488#4.47 40416132#0 40416132#0.19 -460419011#2 -460419011#1 -460419011#1.97 -460419011#0 -460419011#0.11 460419013#0 460419013#0.51 801995082 801995081#0 6464126#5 6464126#6 6464126#7 6464126#7.50 22917113#2 22917113#3 256994205#1 -185485132#6 -185485132#6.52 -185485132#4 6464126#11 6464126#11.50 6494975#2 243349338#5"/>
</vehicle>
<vehicle id = "veh5" type= "veh_passenger" depart="3605" >
<route edges =" -6457203#16 -6457203#16.59 -6457203#15 -6457203#15.22 -6457203#14 -6457203#14.67 6368504#3 6368504#3.46 6368504#5 6368504#5.48 603522174#1 -8111707#3 -8111707#3.49 -6505136#14 -6505136#13 -6505136#13.115 8111709#2 8111709#2.49 6464042#8 6464042#8.123 37657905#0 37657905#0.5 37657905#0.47 37657905#3 37657905#3.48 6381494#9 6381494#9.36 6381494#9.62 6381494#12 6381494#12.56 6368504#12 6368504#12.37 6368504#12.47 6368504#15 6368504#15.40 6368504#15.46 6368504#15.67 476409332#0 476409332#0.44 476409332#2 476409332#2.43 -6460085#6 -6460085#6.27 -170683231#7 -65588097#5 -65588097#5.172 -6464374 -6460085#3 -6460085#3.55 -6460085#1 -6460085#1.27 -6460085#1.86 -6460085#1.119 465799093#0 465799093#0.8 465799093#0.46 465799093#0.91 65588097#0 65588097#0.9 6384373#5 6384373#5.40 6384373#5.50 6384373#5.90 -6448612#5 -6448612#5.30 -6448612#3 -6448612#3.16 6463035#3 6463035#4 6463035#4.46 6463035#4.48 6463035#7 6463035#8 6463035#8.49 6463035#10 6463035#10.48 -6353177#3 -6353177#3.7 -6353177#3.98 -6353177#3.134 -336908262#3 -336908262#3.49 -6472289#4 -805658294#5 -805658294#5.50 -805658294#3 -805658294#3.49 -6494975#9 -6494975#9.13 -6494975#9.24 -243349945#10 -243349945#10.46 -243349945#8 -243349945#8.11 -243349945#8.51 -22917113#6 243349944#15 243349944#15.48 -185485132#9 6447445#7 6447445#7.46 -6494975#6 -6494975#6.81 256994205#3 428246847#0 428246847#0.8 428246847#0.22 6386110#0 6386110#0.16 6386110#0.25 6386110#0.55 -243349338#6 -243349338#6.14"/>
</vehicle>
<vehicle id = "veh6" type= "veh_passenger" depart="3605" >
<route edges =" -6522868 -6403883#7 -6403883#6 -6403883#5 6368504#0 -6469837#4 -6469837#4.19 -158882511#8 -158882511#7 -158882511#7.20 -158882511#7.33 -158882511#4 -6411908#4 -158882517#2 6346524#2 6346524#3 6346524#3.79 6346524#3.88 6346524#3.93 6346524#3.98 6346524#3.103 6346524#3.111 6346524#3.116 6346524#3.121 6346524#4 6346524#4.124 6346524#4.138 -263668130#0 -337099385#0 -337099385#0.153 -337099385#0.159 -6368665#5 -6368665#5.9 -6368665#5.17 -6368665#5.26 -6368665#5.35 -6368665#5.53 -6368665#4 -6368665#4.121 -6368665#2 -6368665#1 -6368665#1.49 -6368665#1.91 -6368665#1.93 171739214#11 -6346526#5 -6346526#5.121 337668916#4 337668916#4.6 337668916#4.52 337668916#6 337668916#6.37 337668916#6.48 160552467#1 160552467#1.43 160552467#1.66 160552467#1.99 160552467#1.104 160552467#1.111 160552467#6 160552467#6.15 160552467#6.20 160552467#6.50 158882505#6 -6403883#1 -6403874#2 -6403874#2.90 -6403874#0 171739207#4 171739207#4.40 171739207#4.43 171739207#4.47 171739207#4.50 171739207#4.52 171739207#4.54 171739207#4.77 171739207#4.80 171739207#4.82 171739207#4.85 171739207#4.87 171739207#4.90 171739207#4.113 292812446#0 292812446#0.15 292812446#0.27 292812446#0.70 292812446#0.83 292812446#0.91 292812446#0.121 292812446#5 8071899 6384359#0 6384359#0.22 6384359#0.45 6384359#0.50 6384359#4 6384359#4.13 6384359#4.31 6384359#4.51 6464042#3 6464042#3.16 6464042#3.33 6464042#3.50 6464042#3.56 8111709#4 8111709#4.49 -6513783#5 6384359#8 6384359#9 6384359#9.26 -6381494#3 -6381494#3.43 6463017#6 6463017#6.48 6386837#1 8071897#0 8071897#0.89 -6444677 481291015#0 481291015#0.20 481291015#0.59 -343521145#3 -343521145#3.32 -343521145#3.66 -343521145#3.101 -343521145#3.142 -343521145#3.155 337739267#0 337818462 337818462.3 337818462.6 337739271#1 337739271#1.6 337739269#0 -460419011#4 243349944#8 -801995081#5 -801995081#5.197 -801995081#5.209 -801995081#2 -801995081#2.109 -801995081#0 -801995082 481291014#0 481291014#0.53 353690153#0 353690153#0.8 353690153#0.25 353690153#0.87 6360256#0 6360256#0.104 243339793#6 243339793#6.50 243339793#6.74 243339793#9 243339793#9.48 -185485132#2 -185485132#2.8 481291012#2 481291012#2.49 6494975#0 6494975#0.105 243339793#13 243339793#13.49 6386110#5 6386110#5.80 428246845 -481291012#7 -481291012#7.22 6498476 6498476.121 6498476.127 6498476.134 926425193#1 926425193#1.12 926425193#1.24 926425193#1.34 926425193#2 926425193#2.6 926425193#2.94 926425193#2.182 926425193#2.204 926425193#2.206 -185485127#3 -185485127#3.10 -185485127#1 -6523501#4 -6523501#4.175 -6523501#2 -6523501#2.5 -6523501#2.101 6497081#0 6497081#0.8 6415147#3 6415147#4 428247193#3 428247193#3.27 486632638#0 486632638#0.14 486632638#0.27 256996977#0 256996977#0.9 256996977#0.40 256996977#4 256996977#4.22 256996977#4.24 256996977#4.38 6351349#0 6351349#0.4 6351349#0.39 -6415147#6 6489809#2 -295783215#1 14374224#0 14374224#0.36 14374224#0.80 14374224#0.83 -256997441#2 -256997441#2.27 -256997441#2.71 -256997441#2.77 -428247194#1 -428247194#1.9 -428247194#1.28 -157167355#3 -157167355#3.5 -157167355#3.43 -157167355#0"/>
</vehicle>
<vehicle id = "veh7" type= "veh_passenger" depart="3605" >
<route edges =" 817434294 817434294.10 817434294.36 817434294.44 817434294.63 817434294.119 816616072#4 816616072#4.7 816616072#4.62 816616072#4.121 6430729#0 6430729#0.7 6430729#0.86 813722270#5 813722270#5.7 813722270#5.118 171739207#0 171739207#0.49 171739207#2 171739207#2.46 -65588100#6 -65588100#6.7 -65588100#4 -65588100#4.73 -65588100#4.110 6343949#7 -8071898#2 6430729#11 6430729#11.51 65588093#3 292812445#3 292812445#3.49 6464042#0 6464042#0.76 6463017#2 6463017#2.44 6463017#2.48 -6513783#1 -6513783#1.10 -6513783#0 292812445#7 292812445#7.46 -620762224#1 -620762224#0 -66558981#7 -66558981#7.65 -66558981#7.83 -66558981#7.105 -66558981#7.123 -243349944#5 -243349944#5.51 -525497324#1 -525497324#0 -6512920#11 -6512920#11.12 -6512920#11.49 -6512920#11.62 -6512920#11.76 -6512920#11.147 -6512920#7 -6512920#7.4 -6512920#7.122 -6512920#7.124 -6464138#11 -6464138#11.9 -6464138#11.48 -6464138#11.90 -6440371#5 -6440371#5.4 -6440371#5.6 -6440371#5.7 -6440371#5.119 -6440371#5.121 -6440371#2 -6440371#2.9 -6440371#2.11 -6440371#2.121 -6440371#2.122 460419029#9 460419029#9.7 460419029#9.45 486874837#0 486874837#1 -6447971#9 6425689#0 6425689#0.48 -460419007#0 -460419007#0.17 -460419007#0.46 -263669069#2 -263669069#2.25 -263669069#2.47 -263669069#2.55 -263669069#0 -465971499#1 -465971499#1.88 -512168130#2 -512168130#2.10 -512168130#2.12 -512168130#2.65 -512168130#2.197 -901474742#2 -901474742#2.5 -901474742#2.43 -901474742#2.83 -901477546#2 -901477546#2.6 -901477546#2.45 -901477546#2.87 -901474740#3 -901474740#3.7 -901474740#3.53 -901474740#3.61 -901474740#3.102 256996974#11 256996974#11.6 256996974#11.33 256996974#11.65 6481166#0 6481166#0.6 6481166#0.73 6481166#0.104 169917351#4 169917351#4.51 6447971#4 6507809#4 6507809#5 6507809#5.51 -6380913#4 -6380913#3 -6380913#3.7 -6380913#3.66 -6380913#3.103 6385341#0 6385341#0.19 6385341#0.20 6385341#0.34 6385341#0.47 6385341#0.50 6385341#0.54 6385341#0.58 6385341#0.73 6385341#0.78 6385341#0.81 6385341#0.84 6385341#0.87 6385341#0.126 6385341#0.138 6384260#2 6384260#3 6384260#3.54 -6487445#4 -6487445#4.15 -6487445#4.55 6415147#0 6415147#0.61 6449462#3 6449462#3.7 6449462#3.50 6449462#3.60 6449462#3.72 6449462#3.87 795669782#0 795669782#0.54 6414318#1 6414318#1.86 6497081#8 6371720#3 157167355#0"/>
</vehicle>
<vehicle id = "veh8" type= "veh_passenger" depart="7210" >
<route edges =" -816616074#1 -816616074#1.10 -816616074#1.14 -816616074#1.119 428341734#4 428341734#4.8 428246439#0 428246439#0.14 428246438#0 428246438#0.8 428246440#0 428246440#0.62 800744529#0 800744529#0.7 800744529#0.52 800744529#0.89 -349901821 349901822#0 349901822#0.9 349901822#2 349901822#2.21 -620762214 -8071898#3 6343949#8 6343949#8.52 6343949#10 6343949#10.49 -6440348#10 -6440348#10.4 -6440348#10.6 -6440348#10.48 -6440348#10.83 -6440348#7 -6440348#7.9 243349944#0 243349944#0.4 243349944#0.20 243349944#0.49 243349944#4 243349944#4.53 243349944#6 -481291488#4 -481291488#4.47 40416132#0 40416132#0.19 -460419011#2 6464126#3 6464126#3.49 -801995081#0 243339793#4 -460419028#4 6464126#6 6360256#2 6360256#2.128 6360256#4 256994205#0 256994205#0.67 256994205#1 -185485132#6 -185485132#6.52 243349338#3 243349338#3.49 243349338#5"/>
</vehicle>
<vehicle id = "veh9" type= "veh_passenger" depart="7210" >
<route edges =" -6457203#16 -6457203#16.59 -6457203#15 -6457203#15.22 -6457203#14 -6457203#14.67 6368504#3 6368504#3.46 6368504#5 6368504#5.48 6368504#7 6368504#7.50 -6513783#8 -6513783#7 37657905#3 37657905#3.48 6381494#9 6381494#9.36 6381494#9.62 -170683231#18 -170683231#18.37 -170683231#18.49 336904472#5 336904472#5.77 638348589 263666867#3 263666867#3.49 642732922 476409331 791722143#0 791722143#0.9 -170683231#11 -170683231#11.43 -170683231#9 -170683231#9.43 -6460085#5 -6460085#5.109 -6460085#4 -6460085#4.20 -6460085#3 -6460085#3.55 6384373#2 6384373#2.45 6384373#2.56 -65588097#1 -65588097#1.119 337818330 6463035#0 6463035#0.14 6463035#0.38 -6448612#1 -6448612#1.133 805680044#5 805680044#5.6 805680044#5.49 6495801#0 6463035#4 6463035#4.46 6463035#4.48 -6356676#0 -6494975#10 -6494975#10.123 -6494975#10.131 -6494975#9 -6494975#9.13 -6494975#9.24 -6494975#8 -243349944#18 -243349944#18.47 -185485132#9 6447445#7 6447445#7.46 -6494975#6 -6494975#6.81 256994205#3 428246847#0 428246847#0.8 428246847#0.22 6386110#0 6386110#0.16 6386110#0.25 6386110#0.55 -243349338#6 -243349338#6.14"/>
</vehicle>
<vehicle id = "veh10" type= "veh_passenger" depart="7210" >
<route edges =" 6457203#17 -6428544#18 -6428544#18.43 -6428544#18.144 -6403883#8 -6403883#7 -6323849#4 -6323849#4.14 -6323849#4.28 -6323849#4.52 -6323849#4.61 -6323849#4.72 -6323849#2 -6323849#1 -6323849#1.28 -6411908#6 8071379#2 8071379#2.41 -160552467#10 -160552467#10.17 -160552467#10.28 -160552467#10.38 158882511#5 158882511#5.46 158882511#5.58 158882511#8 158882511#9 158882511#9.51 8111707#0 8111707#0.47 8111707#2 8111707#2.47 603522174#2 603522174#2.123 -8111708#5 -8111708#5.7 -8111708#5.45 -8111708#2 -8111708#2.52 -8111708#2.57 -8111708#2.87 -8111708#2.90 -8111708#2.92 -8111708#2.94 -8111708#2.97 -8111708#2.99 -158882517#7 -158882517#7.6 -158882517#7.8 -158882517#7.10 -158882517#7.11 -158882517#7.13 -158882517#7.33 -158882517#5 -158882517#4 -158882517#3 -6411908#3 -158882505#3 -6346524#0 171739214#13 171739214#14 160552467#6 160552467#6.15 160552467#6.20 160552467#6.50 158882505#6 -6403883#1 171739214#20 171739214#21 171739214#21.8 171739214#21.28 171739214#21.32 -6457203#0 6384359#0 6384359#0.22 6384359#0.45 6384359#0.50 6384359#4 6384359#4.13 6384359#4.31 6384359#4.51 -6464042#2 -6464042#2.80 6463017#2 6463017#2.44 6463017#2.48 6513783#2 6513783#2.8 6513783#2.46 6513783#2.65 6513783#2.68 6384359#8 6384359#9 6384359#9.26 -6381494#3 -6381494#3.43 -6381494#1 -6381494#0 -620762224#1 -620762224#0 343521145#0 343521145#0.47 343521145#0.69 337739267#0 337739267#1 337739271#0 337739271#0.10 337739271#0.13 337739271#1 337739271#1.6 337739269#0 -460419011#4 243349944#8 243349944#9 243349944#10 243349944#10.7 243349944#10.84 -6360256#7 -6360256#7.5 -6360256#5 -396055524#1 -396055524#1.29 -396055524#1.40 -396055524#1.64 -396055524#1.86 460419028#0 460419028#0.11 460419028#0.49 460419028#0.79 460419028#0.95 243349338#0 243349338#0.18 243349338#1 -22917113#2 -22917113#1 -22917113#1.55 -22917112 -185485118#1 -185485118#0 -185485118#0.55 -185485118#0.102 -185485118#0.141 185485127#0 185485127#1 -6494970#4 -6494970#4.172 -169917351#24 -169917351#24.6 -169917351#24.71 -6523501#2 -6523501#2.5 -6523501#2.101 460421482#3 460421482#3.8 460421482#3.48 460421482#3.55 460421482#3.72 6358721#0 6358721#0.9 6415147#4 6415147#5 6415147#6 6415147#7 6354836#1 6354836#1.40 -642753173 642753174 -6384264 -295783215#1 14374224#0 14374224#0.36 14374224#0.80 14374224#0.83 256997441#3 256997441#3.6 256997441#3.53 6351349#5 661086629#0 661086629#1 661086629#1.93 6351337#0 -6485999#1 -6485999#1.42 185483738#6 185483738#6.71 185483738#6.123 6496652#2 6496652#2.75 6351337#3 6351337#3.8 6351337#3.120 6351337#3.123 754699003#5 754699003#5.6 -6433087#0 -6433087#0.37 -6433087#0.42 -6513107#1 -6513107#1.4 -6513107#1.9 -6513107#1.116 512126023#1 512126023#1.30 512126023#1.40 512126023#3 512126023#3.2 512126023#3.136 512126023#3.140 512126023#3.156 512126023#3.203 512126023#3.215 512126023#3.227 512126023#3.239 512126021#0 512126021#0.7 512126021#0.31 512126021#0.66 6371720#4 6371720#4.46 -185483738#0 -6414318#4 -157167355#0"/>
</vehicle>
<vehicle id = "veh11" type= "veh_passenger" depart="7210" >
<route edges =" -813722269#3 -813722269#3.7 -813722269#3.48 -813722269#3.84 -813722269#3.86 620762213#0 620762213#0.9 620762213#0.88 620762212#0 620762212#0.8 620762212#0.52 620762212#3 6430729#6 6430729#6.47 6430729#6.48 -65588100#4 -65588100#4.73 -65588100#4.110 6343949#7 -8071898#2 6430729#11 6430729#11.51 65588093#3 292812445#3 292812445#3.49 -6440348#14 6430729#15 6430729#15.48 -525497324#7 -525497324#7.39 -525497324#7.54 -525497324#7.112 -525497324#3 -525497324#2 -525497324#1 -525497324#0 -6512920#11 -6512920#11.12 -6512920#11.49 -6512920#11.62 -6512920#11.76 -6512920#11.147 293775902#12 293775902#12.3 293775902#12.50 -6481166#11 -6481166#11.122 -6481166#11.125 -6464138#13 -6464138#13.47 -6512920#5 -6512920#5.6 -6512920#5.9 -6512920#5.119 -6512920#5.124 -6512920#3 -6512920#3.8 -6512920#3.9 -6512920#3.19 -6512920#3.59 -6512920#3.92 486874837#0 -6481166#8 -6481166#8.162 -6481166#6 -6467507#2 -6467507#2.10 -6467507#2.91 -901474742#2 -901474742#2.5 -901474742#2.43 -901474742#2.83 -901477546#2 -901477546#2.6 -901477546#2.45 -901477546#2.87 169917351#0 169917351#0.8 169917351#0.53 169917351#0.88 169917351#4 169917351#4.51 -6447971#3 -6447971#3.29 -6447971#3.37 -6447971#3.61 256996978#0 256996978#0.7 256996978#0.68 6515975#0 6515975#0.8 6515975#0.67 6515975#0.104 6515975#4 6515975#4.43 6507809#5 6507809#5.51 -6380913#4 169917351#9 169917351#9.48 169917351#9.87 169917351#12 169917351#12.9 169917351#12.42 169917351#12.90 -6360239#3 -6360239#3.6 -6360239#3.69 -6360239#3.102 6487445#0 6487445#0.8 6415147#0 6415147#0.61 6415147#2 6497081#2 6497081#2.38 6497081#2.47 6497081#2.53 6497081#2.60 6497081#2.67 6497081#2.70 6497081#2.74 6497081#2.81 6497081#2.120 460421481#1 460421481#1.61 460421481#1.85 -428247194#1 -428247194#1.9 -428247194#1.28 -157167355#3 -157167355#3.5 -157167355#3.43 -6414318#3 6497081#8 6371720#3 157167355#0"/>
</vehicle>
<vehicle id = "veh12" type= "veh_passenger" depart="10815" >
<route edges =" -813722269#3 -813722269#3.7 -813722269#3.48 -813722269#3.84 -813722269#3.86 620762213#0 620762213#0.9 620762213#0.88 57883609#0 57883609#0.6 57883609#0.57 57883609#3 57883609#3.43 57883609#3.52 57883609#3.60 57883609#3.80 620762214 332092195#0 332092195#0.9 332092195#0.74 -22917111#30 -22917111#30.9 -22917111#30.50 -22917111#30.96 8071900#4 8071900#4.7 8071900#4.49 8071900#4.88 6440348#0 6440348#0.6 6440348#0.84 6440348#0.93 6440348#0.107 6440348#0.114 6440348#6 6440348#6.25 6440348#8 6440348#8.12 6440348#8.47 6440348#8.88 6440348#8.91 6440348#11 6440348#11.4 6440348#11.7 6440348#11.62 6440348#11.73 6430729#15 6430729#15.48 6430729#17 6430729#17.51 -620762224#0 343521145#0 343521145#0.47 343521145#0.69 337739267#0 337739267#1 337739271#0 337739271#0.10 337739271#0.13 337739271#1 337739271#1.6 337739269#0 337739269#1 337739269#1.30 337739269#3 337739269#3.69 396055523#5 396055523#5.8 396055523#5.42 243349945#0 243349945#0.6 243349945#0.83 -6360256#9 -6360256#9.6 -6360256#7 -6360256#7.5 6447445#3 6447445#3.51 6447445#5 6447445#5.47 -185485132#8 -185485132#8.81 256994205#2 256994205#2.24 256994205#2.72 256994205#3 428246847#0 428246847#0.8 428246847#0.22 6386110#0 6386110#0.16 6386110#0.25 6386110#0.55 -243349338#6 -243349338#6.14"/>
</vehicle>
<vehicle id = "veh13" type= "veh_passenger" depart="10815" >
<route edges =" -816616074#1 -816616074#1.10 -816616074#1.14 -816616074#1.119 428341734#4 428341734#4.8 428246439#0 428246439#0.14 428246438#0 428246438#0.8 428246440#0 428246440#0.62 800744529#0 800744529#0.7 800744529#0.52 800744529#0.89 -349901821 -6476313#2 -6476313#2.11 -6476313#2.29 -6476313#2.98 -6476313#2.99 -6476313#2.103 -6476313#2.107 164418944#4 164418944#4.7 164418944#4.8 164418944#4.29 164418944#4.51 164418944#4.95 -353690150#2 -353690150#2.8 -353690150#2.144 293775902#0 293775902#0.7 293775902#0.52 293775902#0.90 293775902#4 293775902#4.6 293775902#4.49 293775902#4.88 293775902#8 293775902#8.6 293775902#8.49 293775902#8.91 -6512920#7 -6512920#7.4 -6512920#7.122 -6512920#7.124 6464138#12 6464138#12.51 6481166#11 6481166#11.4 6481166#11.7 6481166#12 525497323#2 525497323#2.81 40416132#0 40416132#0.19 40416132#1 40416132#1.90 256994206#0 256994206#0.8 256994206#0.43 256994206#0.60 460419028#0 460419028#0.11 460419028#0.49 460419028#0.79 460419028#0.95 460419028#3 6464126#6 6360256#2 6360256#2.128 243349338#1 243349338#2 243349338#3 243349338#3.49 243349338#5"/>
</vehicle>
<vehicle id = "veh14" type= "veh_passenger" depart="10815" >
<route edges =" 817434294 817434294.10 817434294.36 817434294.44 817434294.63 817434294.119 6343949#0 6343949#0.7 6343949#0.86 -816616073#1 -816616073#1.7 -569505974#1 -569505974#1.6 -569505974#1.33 -569505976#2 -569505976#2.9 -569505976#2.88 -569505976#2.115 -569505976#2.119 -569505978#1 -569505978#1.10 -569505979 -569505979.32 -569505979.79 -395714916#1 -395714916#1.12 -568043367 -568043367.41 -568043367.79 -293775903#2 -293775903#2.10 -293775903#2.37 -293775903#2.89 -293775903#2.118 893866060#0 893866060#0.10 893866060#0.69 893866060#0.91 -243338979#20 -243338979#20.7 -243338979#20.121 353690157#0 353690157#0.5 353690157#0.19 353690157#0.47 353690157#0.72 353690157#0.87 893866056#0 893866056#0.8 893866056#0.64 893866056#0.88 -893866057 -893866057.8 -893866057.9 -893866057.122 460419029#0 460419029#0.7 460419029#0.51 460419029#0.53 460419029#0.89 22917111#11 22917111#11.7 22917111#11.31 22917111#11.49 22917111#11.50 22917111#11.120 22917111#11.121 22917111#14 22917111#14.7 22917111#14.9 22917111#14.122 22917111#14.123 22917111#14.125 6464138#4 6464138#4.6 6464138#4.51 6464138#4.88 -6440371#5 -6440371#5.4 -6440371#5.6 -6440371#5.7 -6440371#5.119 -6440371#5.121 353690154#8 353690154#8.7 353690154#8.42 353690154#8.50 353690154#8.92 -6512920#3 -6512920#3.8 -6512920#3.9 -6512920#3.19 -6512920#3.59 -6512920#3.92 486874837#0 6481166#9 6481166#9.121 353690154#15 353690154#15.50 481291488#0 481291488#0.9 481291488#0.23 6464126#0 6464126#0.46 6464126#0.49 6464126#3 6464126#3.49 -801995081#0 -801995082 -6380913#14 -6425689#3 -6425689#3.44 -460419007#0 -460419007#0.17 -460419007#0.46 -6515975#8 6463532#2 6463532#2.50 6463536#0 6463536#0.21 6463536#0.30 6463536#0.40 6463536#0.47 6463536#0.52 6463536#0.58 6463536#0.69 6463536#0.79 6463536#0.80 6516509#4 6516509#4.6 6516509#4.33 6516509#4.47 6516509#4.52 6516509#4.66 6516509#4.84 -6467507#9 -6467507#9.9 -6380913#5 -6380913#4 169917351#9 169917351#9.48 169917351#9.87 6516509#15 6516509#15.7 6516509#15.35 6516509#15.48 6516509#15.68 6516509#15.70 6516509#15.79 6516509#15.84 6516509#15.98 6516509#15.101 256996976#0 256996976#0.11 256996976#0.20 256996976#0.46 256996976#0.79 6487445#0 6487445#0.8 6415147#0 6415147#0.61 6415147#2 6497081#2 6497081#2.38 6497081#2.47 6497081#2.53 6497081#2.60 6497081#2.67 6497081#2.70 6497081#2.74 6497081#2.81 6497081#2.120 6497081#6 6497081#6.44 6497081#8 6371720#3 157167355#0"/>
</vehicle>
<vehicle id = "veh15" type= "veh_passenger" depart="10815" >
<route edges =" -814326475#2 -814326475#2.9 -814326475#2.24 -814326475#2.41 -814326475#2.70 -814326475#2.91 -6456052#5 -6456052#5.10 -6456052#5.36 -6456052#5.120 -6456052#1 -6456052#1.10 -6456052#1.62 -337673342#0 6343890#0 6343890#0.54 6343890#0.56 6343890#0.58 6343890#0.59 6343890#0.61 -6475815#6 -6475815#6.16 -6501701#3 -6501701#3.11 -6501701#3.20 -607691082#0 -6475815#3 -6475815#3.2 -6475815#3.17 -6475815#3.46 -428089348#3 -428089348#3.15 -428089348#3.21 -428089348#3.28 -428341218#2 -428341218#2.3 -428341218#2.9 -65588069#1 -65588069#1.13 -428089351#1 -428089351#1.16 -293753570#2 -293753570#2.9 -293753570#2.83 -369877031#7 -369877031#7.10 -369877031#7.98 -369877031#7.191 -749622503#8 -749622503#8.7 -749622503#8.63 -749622503#8.83 -749622503#4 -749622503#4.84 369877024#3 369877024#3.6 369877024#3.87 369877024#3.91 369877024#3.98 369877024#3.100 369877024#3.103 369877024#3.104 -428088900#1 -428088900#1.10 -428088894#1 -428088894#1.25 -428088883#1 -428088883#1.15 -428088897 -428088888 -737711647 -332223490#1 -332223490#1.19 -428088887#1 -428088887#1.12 -428088892 -428088886#1 -428088886#1.24 -428088886#1.35 -428088886#1.45 -65588108#1 -65588108#1.18 -65588108#1.53 -332223489#3 -332223489#3.4 -332223489#3.15 -332223489#3.17 -332223489#3.21 -401497115 -401497115.113 -401497115.170 -401497115.214 -537677478#2 -537677478#2.10 -537677478#2.11 -537677478#2.28 -537677478#2.36 -6456046#3 -6456046#3.6 -6456046#3.36 -6456046#3.42 -6456046#3.49 -6456046#3.56 -6456046#3.62 -6456046#3.66 -6456046#3.71 -6456046#3.76 -6456046#3.92 -6456046#3.102 -6456046#3.109 -6456046#3.112 440890310 440890310.65 425646003#0 425646003#0.15 6476922#0 6476922#0.13 6476922#0.24 6476922#0.37 6476922#0.60 6476922#0.67 32121988#0 32121988#0.9 32121988#0.30 32121988#0.39 32121988#0.51 32121988#0.83 347092908 347092908.18 347092908.44 347092908.47 347092908.49 6476327#0 6476327#0.4 6476327#0.9 6476327#0.63 6476327#0.102 6476327#4 6476327#4.7 6476327#4.35 6476327#4.86 6476327#8 6476327#8.6 6476327#8.84 893868547#0 893868547#0.8 893868547#0.91 -893868548#2 -893868548#2.7 -893868548#2.85 -893868550#2 -893868550#2.7 -893868550#2.86 -32135545#3 -32135545#3.7 -32135545#3.47 -32135545#3.102 256996974#0 256996974#0.8 256996974#0.88 256996974#3 256996974#3.6 256996974#3.29 256996974#3.56 256996974#3.86 6440364#0 6440364#0.8 6440364#0.26 6440364#0.98 6440364#0.103 901477545#7 901477545#7.5 901477545#7.83 901477546#0 901477546#0.5 901477546#0.47 901477546#0.85 6507809#0 6507809#0.7 6507809#0.88 6507809#3 -6447971#4 169917351#6 -6515975#3 -6515975#3.6 -6515975#3.44 -6515975#3.102 -256996978#1 -256996978#1.29 -256996978#1.90 881403606#0 881403606#0.12 881403606#0.42 881403606#0.83 881403606#0.85 881403606#4 881403606#4.53 881403608#2 881403608#2.2 881403608#2.5 881403608#2.8 881403608#2.11 881403608#3 881403608#3.2 881403608#3.5 881403608#3.8 881403608#3.11 976099002#0 976099002#0.34 976099002#0.40 976099002#0.64 965874292#7 965874292#7.8 965874292#7.41 965874292#10 965874292#10.35 965874292#12 965874292#12.8 965874292#12.69 158123767#0 158123767#0.10 158123767#0.11 158123767#0.50 158123767#0.74 158123767#0.86 158123767#0.115 158123767#0.122 158123767#0.134 158123767#0.139 158123767#0.166 795669781 795669781.52 795669781.56 460421481#1 460421481#1.61 460421481#1.85 -428247194#1 -428247194#1.9 -428247194#1.28 -157167355#3 -157167355#3.5 -157167355#3.43 -157167355#0"/>
</vehicle>
<vehicle id = "veh16" type= "veh_passenger" depart="14420" >
<route edges =" -813722269#3 -813722269#3.7 -813722269#3.48 -813722269#3.84 -813722269#3.86 620762213#0 620762213#0.9 620762213#0.88 620762212#0 620762212#0.8 620762212#0.52 6343949#6 6343949#7 8071898#3 620762214 332092195#0 332092195#0.9 332092195#0.74 460423532#0 460423532#0.2 620762218#0 620762218#0.55 620762218#0.66 620762218#0.68 620762218#0.81 -6440348#7 -6440348#7.9 243349944#0 243349944#0.4 243349944#0.20 243349944#0.49 243349944#4 243349944#4.53 243349944#6 243349944#7 243349944#8 801995081#6 801995081#6.192 337739269#3 337739269#3.69 -396055523#4 -396055523#4.9 -396055523#4.15 -396055523#4.150 243334881#0 243334881#0.7 243334881#0.57 243334881#0.96 805680044#1 805680044#1.7 805680044#1.49 805680044#1.91 -22917113#10 -22917113#10.7 -22917113#10.129 -22917113#10.132 -22917113#7 -22917113#7.10 -22917113#7.19 243349945#6 243349945#6.48 243349945#6.88 -185485132#10 243349944#17 243349944#17.50 -6494975#7 6447445#9 6447445#9.49 -22760521#2 -22760521#2.81 -22760521#2.121 428246847#0 428246847#0.8 428246847#0.22 6386110#0 6386110#0.16 6386110#0.25 6386110#0.55 -243349338#6 -243349338#6.14"/>
</vehicle>
<vehicle id = "veh17" type= "veh_passenger" depart="14420" >
<route edges =" -816616074#1 -816616074#1.10 -816616074#1.14 -816616074#1.119 428341734#4 428341734#4.8 428246439#0 428246439#0.14 428246438#0 428246438#0.8 428246440#0 428246440#0.62 800744529#0 800744529#0.7 800744529#0.52 800744529#0.89 825336588#0 825336588#0.7 96029553#0 96029553#0.9 96029553#0.15 96029553#0.59 8071900#0 8071900#0.7 8071900#0.18 8071900#0.88 -22917111#26 -22917111#26.7 -22917111#26.41 -22917111#26.121 32135548#5 32135548#5.7 32135548#5.49 32135548#5.88 -6440371#11 -6440371#11.12 -6440371#11.144 293775902#8 293775902#8.6 293775902#8.49 293775902#8.91 293775902#12 293775902#12.3 293775902#12.50 6481166#12 525497323#2 525497323#2.81 40416132#0 40416132#0.19 40416132#1 40416132#1.90 -801995081#2 -801995081#2.109 -801995081#0 243339793#4 243339793#5 6360256#1 6360256#1.7 6464126#7 6464126#7.50 -22917113#1 -22917113#1.55 243339793#9 243339793#9.48 243339793#11 243339793#11.47 6494975#1 6494975#1.9 6494975#2 243349338#5"/>
</vehicle>
<vehicle id = "veh18" type= "veh_passenger" depart="14420" >
<route edges =" 817434294 817434294.10 817434294.36 817434294.44 817434294.63 817434294.119 6343949#0 6343949#0.7 6343949#0.86 6343949#3 6343949#3.9 6343949#3.49 -620762212#2 -620762212#2.76 -620762212#2.120 -800744530#5 -800744530#5.9 -800744530#5.19 -800744530#5.73 -800744530#5.84 -800744530#5.118 -800744528#1 -800744528#1.8 -800744528#1.16 -800744528#1.37 -800744528#1.72 -337673339 -337673337 -337673338#1 -337673338#1.9 -395714916#1 -395714916#1.12 -568043367 -568043367.41 -568043367.79 -293775903#2 -293775903#2.10 -293775903#2.37 -293775903#2.89 -293775903#2.118 -475161306#1 -475161306#1.9 -475161306#1.92 -475161306#1.120 353690155#0 353690155#0.10 353690155#0.51 353690155#0.58 353690155#0.90 -243338979#17 -243338979#17.7 -243338979#17.60 -243338979#17.109 -243338979#17.118 -243338979#17.120 486864438#2 486864438#2.6 486864438#2.88 -6476327#20 -6476327#20.8 -6476327#20.163 -6476327#20.182 -6476327#20.195 -486844942#3 -486844942#3.8 -486844942#3.80 -486844942#3.90 -243338979#3 -243338979#3.10 -243338979#3.38 -243338979#3.51 -243338979#3.65 6376376#4 6376376#4.5 6376376#4.86 -6476327#11 893868547#0 893868547#0.8 893868547#0.91 893868546#0 893868546#0.7 893868546#0.194 353690160#0 353690160#0.6 353690160#0.88 22917111#3 22917111#3.9 22917111#3.50 22917111#3.112 22917111#3.129 22917111#3.131 22917111#3.134 22917111#3.173 22917111#3.196 460419029#5 460419029#5.8 460419029#5.52 460419029#5.91 6440371#0 6440371#0.7 6440371#0.8 6440371#0.119 6440371#0.121 353690154#8 353690154#8.7 353690154#8.42 353690154#8.50 353690154#8.92 353690154#12 353690154#12.6 353690154#12.32 6481166#10 6481166#10.9 6481166#10.121 6481166#10.123 6464138#14 -481291488#1 6464126#0 6464126#0.46 6464126#0.49 -460419011#1 -460419011#1.97 -243339793#1 -243339793#1.46 -6447971#10 -6447971#10.11 -6447971#9 -6447971#8 -6447971#7 -6447971#6 6467507#4 6467507#4.48 -6515975#6 6507809#5 6507809#5.51 -6380913#4 169917351#9 169917351#9.48 169917351#9.87 169917351#12 169917351#12.9 169917351#12.42 169917351#12.90 169917351#16 169917351#16.9 169917351#16.77 169917351#19 169917351#19.6 169917351#19.71 169917351#22 169917351#22.7 169917351#22.72 -6494970#2 -6494970#2.4 -6494970#2.100 6358721#0 6358721#0.9 6415147#4 -428247193#2 -428247193#2.56 -428247193#2.61 -428247193#2.96 -428247193#2.117 -428247193#2.121 -428247193#2.140 -428247193#2.154 -428247195 -428247195.5 -428247194#1 -428247194#1.9 -428247194#1.28 -157167355#3 -157167355#3.5 -157167355#3.43 -6414318#3 6497081#8 6371720#3 157167355#0"/>
</vehicle>
<vehicle id = "veh19" type= "veh_passenger" depart="14420" >
<route edges =" -814326475#2 -814326475#2.9 -814326475#2.24 -814326475#2.41 -814326475#2.70 -814326475#2.91 -6456052#5 -6456052#5.10 -6456052#5.36 -6456052#5.120 -6456052#1 -6456052#1.10 -6456052#1.62 -337673342#0 6343890#0 6343890#0.54 6343890#0.56 6343890#0.58 6343890#0.59 6343890#0.61 -6475815#6 -6475815#6.16 -6475815#4 -6475815#3 -6475815#3.2 -6475815#3.17 -6475815#3.46 -428089348#3 -428089348#3.15 -428089348#3.21 -428089348#3.28 -353690151#5 -353690151#5.11 -353690151#5.12 -353690151#5.26 -353690151#5.83 -353690151#5.102 -293753571#3 -293753571#3.3 -293753571#3.7 -293753571#3.21 -369877031#7 -369877031#7.10 -369877031#7.98 -369877031#7.191 -749622503#8 -749622503#8.7 -749622503#8.63 -749622503#8.83 -749622503#4 -749622503#4.84 -749622503#2 -749622503#2.9 -749622503#2.29 -749622503#2.64 -749622503#2.84 -369877039 -369877039.36 -369877039.55 -428088903#1 -428088903#1.15 428231018#0 428231018#0.12 428231018#0.30 465971497#0 465971497#0.10 465971497#0.34 465971498#0 465971498#0.9 465971498#0.59 465971498#0.83 465971498#0.86 465971498#0.88 465971498#0.90 465971498#0.91 6514305#0 6514305#0.3 6514305#0.4 6514305#0.9 6514305#0.14 6514305#0.34 6514305#0.54 -6456044#8 -6456044#8.8 -6456044#8.104 6463530#6 6463530#6.6 6463530#6.49 6463530#6.89 6463530#10 6463530#10.5 6463530#10.49 6463530#10.87 -6435230#7 -6435230#7.4 -6435230#7.24 -6435230#7.64 -347094714#7 -347094714#7.12 -347094714#7.50 -347094714#7.93 -347094714#3 -347094714#3.9 -347094714#3.49 -347094714#3.92 6467490#0 6467490#0.7 6467490#0.49 6467490#0.78 -401497115 -401497115.113 -401497115.170 -401497115.214 -428233435 -460425668 -460425668.5 -6457806#2 -6457806#2.21 -6457806#2.25 -6457806#2.30 6465162#0 6465162#0.2 6465162#0.6 6465162#0.11 6465162#0.36 428233434 428233434.31 428233434.58 -739874554#2 -739874554#2.15 -739874554#2.40 -739874554#2.60 -739874554#2.67 622519661 622519661.8 347092914#0 347092914#0.10 347092914#0.14 347092914#0.24 347092914#0.54 347092914#0.75 347092914#0.87 893872038 893872038.9 893872038.14 893872038.97 893872038.123 893872038.129 893872038.134 6405076#3 6405076#3.4 6405076#3.8 6405076#3.14 6405076#3.20 6405076#3.50 6405076#3.68 6405076#3.84 22917663#0 22917663#0.5 22917663#0.8 22917663#0.11 22917663#0.26 22917663#0.59 22917663#0.67 22917663#0.85 22917663#6 22917663#6.6 22917663#6.34 22917663#6.58 22917663#6.88 6506833#5 6506833#5.9 6506833#5.46 6506833#5.50 6506833#5.72 6506833#5.85 347092915#6 347092915#6.6 347092915#6.44 347092915#6.87 -6465130#6 -6465130#6.8 -6465130#6.47 -6465130#6.84 22917663#15 22917663#15.9 22917663#15.45 22917663#15.80 243338978#4 243338978#4.8 243338978#4.84 243338978#7 243338978#7.8 243338978#7.38 243338978#7.45 243338978#7.74 965874293#0 965874293#0.9 965874293#0.40 965874293#2 965874293#2.45 760645197#0 760645197#0.6 760645197#0.45 760645197#0.84 844067888#0 844067888#0.8 844067888#0.63 844067888#0.137 844067888#0.187 263712958#0 263712958#0.8 263712958#0.45 263712958#0.101 263712958#0.114 263712958#0.117 263712958#0.119 6445479#0 6445479#0.4 6445479#0.8 6445479#0.186 965874292#10 965874292#10.35 965874292#12 965874292#12.8 965874292#12.69 158123767#0 158123767#0.10 158123767#0.11 158123767#0.50 158123767#0.74 158123767#0.86 158123767#0.115 158123767#0.122 158123767#0.134 158123767#0.139 158123767#0.166 795669781 795669781.52 795669781.56 460421481#1 460421481#1.61 460421481#1.85 256997441#0 256997441#0.11 256997441#0.18 256997441#0.62 14374224#4 14374224#4.44 14374224#4.54 14374224#4.84 14374224#4.122 -6414318#4 -157167355#0"/>
</vehicle>
<vehicle id = "veh20" type= "veh_passenger" depart="18025" >
<route edges =" -813722269#3 -813722269#3.7 -813722269#3.48 -813722269#3.84 -813722269#3.86 569505974#0 569505974#0.10 569505974#0.37 816616073#0 816616073#0.78 6343949#3 6343949#3.9 6343949#3.49 620762212#3 6430729#6 6430729#6.47 6430729#6.48 6430729#9 6430729#9.48 -8071898#1 -8071898#1.60 -8071898#1.73 -8071898#1.89 -8071898#1.91 292812445#0 292812445#0.35 292812445#0.50 292812445#3 292812445#3.49 292812445#5 292812445#5.45 6513783#0 962517344 962517344.33 6381494#1 6463017#6 6463017#6.48 -6386837#0 337739268 337739268.124 337739267#0 337739267#1 -481291488#10 -481291488#10.44 -481291488#10.61 -481291488#10.85 -481291488#10.132 -481291488#10.142 243349944#7 243349944#8 243349944#9 -396055523#8 -396055523#8.8 243349945#0 243349945#0.6 243349945#0.83 243349945#3 243349945#3.5 243349945#3.45 243349945#3.49 243349945#6 243349945#6.48 243349945#6.88 243349945#9 243349945#9.50 -6494975#8 -6494975#7 -6494975#6 -6494975#6.81 256994205#3 428246847#0 428246847#0.8 428246847#0.22 6386110#0 6386110#0.16 6386110#0.25 6386110#0.55 -243349338#6 -243349338#6.14"/>
</vehicle>
<vehicle id = "veh21" type= "veh_passenger" depart="18025" >
<route edges =" -816616074#1 -816616074#1.10 -816616074#1.14 -816616074#1.119 428341734#4 428341734#4.8 428246439#0 428246439#0.14 569505976#0 569505976#0.10 569505976#0.14 569505976#0.41 569505976#0.120 620762213#0 620762213#0.9 620762213#0.88 620762212#0 620762212#0.8 620762212#0.52 6343949#6 -65588100#1 -65588100#1.65 -826314455#3 -826314455#3.64 -826314455#3.71 -826314455#3.76 -826314455#3.90 -826314455#3.118 -349901821 349901822#0 349901822#0.9 349901822#2 349901822#2.21 332092195#0 332092195#0.9 332092195#0.74 -22917111#30 -22917111#30.9 -22917111#30.50 -22917111#30.96 -22917111#26 -22917111#26.7 -22917111#26.41 -22917111#26.121 32135548#5 32135548#5.7 32135548#5.49 32135548#5.88 32135548#9 32135548#9.7 32135548#9.47 32135548#9.63 32135548#9.78 525497323#0 525497323#0.50 525497323#2 525497323#2.81 40416132#0 40416132#0.19 -460419011#2 6464126#3 6464126#3.49 6464126#5 6464126#6 6464126#7 6464126#7.50 6464126#9 6464126#9.46 185485132#4 243349338#3 243349338#3.49 243349338#5"/>
</vehicle>
<vehicle id = "veh22" type= "veh_passenger" depart="18025" >
<route edges =" 817434294 817434294.10 817434294.36 817434294.44 817434294.63 817434294.119 6343949#0 6343949#0.7 6343949#0.86 -816616073#1 -816616073#1.7 -569505974#1 -569505974#1.6 -569505974#1.33 -569505976#2 -569505976#2.9 -569505976#2.88 -569505976#2.115 -569505976#2.119 -569505978#1 -569505978#1.10 -569505979 -569505979.32 -569505979.79 337673338#0 337673338#0.14 185882764 185882764.13 185882764.14 185882765 185882765.16 185882765.26 185882765.30 185882765.31 -243338979#28 -243338979#28.13 -243338979#28.49 -243338979#28.142 -243338979#28.143 893866065#3 893866065#3.6 893866065#3.48 893866065#3.88 -353690148#6 -353690148#6.8 -353690148#6.122 893866060#8 893866060#8.7 893866060#8.65 893866060#8.89 6464138#0 6464138#0.7 6464138#0.53 6464138#0.92 6464138#4 6464138#4.6 6464138#4.51 6464138#4.88 6464138#8 6464138#8.7 6464138#8.49 6464138#8.88 6464138#12 6464138#12.51 6464138#14 -481291488#1 -481291488#0 -481291488#0.69 -481291488#0.82 -6447971#10 -6447971#10.11 486874837#2 486874837#2.47 460419013#0 460419013#0.51 -6380913#14 -6380913#13 -6380913#12 -460419008#1 -460419008#1.44 -6515975#8 -6463532#1 -6463532#1.50 -6447971#6 -6467507#3 -6481166#5 6507809#3 6507809#4 -6515975#5 -6515975#5.48 169917351#7 169917351#7.49 -6380913#3 -6380913#3.7 -6380913#3.66 -6380913#3.103 6385341#0 6385341#0.19 6385341#0.20 6385341#0.34 6385341#0.47 6385341#0.50 6385341#0.54 6385341#0.58 6385341#0.73 6385341#0.78 6385341#0.81 6385341#0.84 6385341#0.87 6385341#0.126 6385341#0.138 6384260#2 6384260#3 6384260#3.54 -6487445#4 -6487445#4.15 -6487445#4.55 6415147#0 6415147#0.61 6415147#2 -6497081#1 -6497081#1.80 6523501#0 6523501#0.9 6523501#0.105 169917351#22 169917351#22.7 169917351#22.72 169917351#25 169917351#25.7 169917351#25.72 336908264#3 428247197#0 428247197#0.12 -460421482#10 -460421482#10.13 -460421482#10.46 -460421482#10.56 -460421482#10.76 6358721#0 6358721#0.9 6415147#4 -428247193#2 -428247193#2.56 -428247193#2.61 -428247193#2.96 -428247193#2.117 -428247193#2.121 -428247193#2.140 -428247193#2.154 -428247195 -428247195.5 -460421481#2 -460421481#2.8 -460421481#2.32 6497081#6 6497081#6.44 -6414318#2 -6414318#2.8 -6414318#0 -6414318#0.76 -6414318#0.81 460418987#0 460418987#0.4 460418987#0.8 460418987#1 460418987#2 -6371704#2 -6371704#2.42 -460418992#2 -460418992#2.50 -460418992#2.92 460418994#0 460418994#0.9 460418994#0.44 460418994#0.71 460418978#0 460418978#0.8 460418978#0.76 460418978#3 460418978#3.9 460418978#3.49 369455641#1 369455641#1.28 369455641#1.78 512126021#0 512126021#0.7 512126021#0.31 512126021#0.66 157167355#0"/>
</vehicle>
<vehicle id = "veh23" type= "veh_passenger" depart="18025" >
<route edges =" -814326475#2 -814326475#2.9 -814326475#2.24 -814326475#2.41 -814326475#2.70 -814326475#2.91 -6456052#5 -6456052#5.10 -6456052#5.36 -6456052#5.120 -607690679#4 -607690679#4.9 -607690679#4.87 -607690679#4.94 -607690679#4.99 -6447455#5 -6447455#5.3 -6447455#5.8 -6447455#5.47 -158612542#5 -158612542#5.11 -158612542#5.64 -158612542#5.73 -158612542#5.81 -158612542#5.114 -165086027#1 -165086027#1.2 -165086027#1.5 -759056491 -759056491.4 -759056491.8 -759056491.13 -759056491.17 -759056491.21 -759056491.26 -759056491.41 -759056491.81 -759056491.83 -759056491.88 -337673342#5 -337673342#5.3 -337673342#5.9 -337673342#5.13 -337673342#5.21 -337673342#5.35 -337673342#5.72 -607691082#1 6501701#2 6501701#2.50 6501701#2.60 -6475815#4 -6475815#3 -6475815#3.2 -6475815#3.17 -6475815#3.46 -428089348#3 -428089348#3.15 -428089348#3.21 -428089348#3.28 332223491#0 332223491#0.12 6438604#0 6438604#0.3 6438604#0.6 6438604#0.8 6438604#0.10 6438604#0.11 6438604#0.13 6438604#0.44 6438604#0.60 -22927969#14 -22927969#14.8 -22927969#14.47 -22927969#14.89 293753570#6 293753570#6.10 293753570#6.38 293753570#6.84 293753570#6.86 -368560864#2 -368560864#2.7 -368560864#2.11 -368560864#2.84 -368560864#2.86 -368560864#2.88 -6462029#17 -6462029#17.2 -6462029#17.5 -6462029#17.7 -6462029#17.45 -6462029#17.88 -6462029#13 -6462029#13.9 -6462029#13.48 -6462029#13.90 -749622503#25 -749622503#25.7 -749622503#25.85 -749622503#22 -749622503#22.9 -749622503#22.51 -749622503#22.84 22927969#3 22927969#3.7 22927969#3.49 22927969#3.90 -6511397#3 -6511397#3.9 -6511397#3.38 -6511397#3.82 -428227812#1 -428227812#1.9 -428227851#1 -428227851#1.5 -13726934#1 -13726934#1.5 -428227808 -428227847#1 -428227847#1.17 -749622503#15 -749622503#15.9 -749622503#15.31 -749622503#15.46 -749622503#15.51 -749622503#15.67 -749622503#15.85 -749622503#8 -749622503#8.7 -749622503#8.63 -749622503#8.83 -749622503#4 -749622503#4.84 -749622503#2 -749622503#2.9 -749622503#2.29 -749622503#2.64 -749622503#2.84 -6522514#4 -6522514#4.7 -6522514#4.36 -6522514#4.61 -6522514#4.66 -6522514#4.67 -6522514#4.73 -332223490#1 -332223490#1.19 -465971498#3 -465971498#3.2 -465971498#3.3 -465971498#3.5 -465971498#3.7 -465971498#3.10 -465971498#3.34 -465971498#3.84 369877037#0 369877037#0.9 369877037#0.83 537686684#0 537686684#0.43 537686684#0.53 -332223489#3 -332223489#3.4 -332223489#3.15 -332223489#3.17 -332223489#3.21 -401497115 -401497115.113 -401497115.170 -401497115.214 -428233435 -460425668 -460425668.5 -6457806#2 -6457806#2.21 -6457806#2.25 -6457806#2.30 6465162#0 6465162#0.2 6465162#0.6 6465162#0.11 6465162#0.36 428233434 428233434.31 428233434.58 332223487#0 332223487#0.16 332223487#0.62 332223487#0.98 332223488 332223488.25 332223488.48 332223488.65 332223488.68 332223488.88 347092907#0 347092907#0.3 347092907#0.13 347092907#0.19 347092907#0.26 347092907#0.31 347092907#0.38 347092907#0.40 347092907#0.45 347092907#0.51 332223494#0 332223494#0.18 332223494#0.35 332223494#0.144 332223494#0.171 6506833#15 6506833#15.8 6506833#15.10 6506833#15.35 6506833#18 6506833#18.45 749863323#4 749863323#4.7 749863323#4.50 749863323#4.155 749863323#4.186 -965874293#3 -965874293#3.8 49394452#8 49394452#8.8 49394452#8.188 -6388742#2 -6388742#2.30 -6388742#2.38 965874292#7 965874292#7.8 965874292#7.41 965874292#10 965874292#10.35 965874292#12 965874292#12.8 965874292#12.69 158123767#0 158123767#0.10 158123767#0.11 158123767#0.50 158123767#0.74 158123767#0.86 158123767#0.115 158123767#0.122 158123767#0.134 158123767#0.139 158123767#0.166 795669782#0 795669782#0.54 6414318#1 6414318#1.86 6414318#3 -157167355#0"/>
</vehicle>
<vehicle id = "veh24" type= "veh_passenger" depart="21630" >
<route edges =" -813722269#3 -813722269#3.7 -813722269#3.48 -813722269#3.84 -813722269#3.86 620762213#0 620762213#0.9 620762213#0.88 620762212#0 620762212#0.8 620762212#0.52 6343949#6 6343949#7 8071898#3 179551719 179551719.37 179551719.46 179551719.51 179551719.88 179551719.93 179551719.97 65588093#0 65588093#0.3 65588093#0.6 65588093#0.9 65588093#0.30 6343949#10 6343949#10.49 6343949#12 6343949#12.47 -525497324#3 620762218#5 620762218#5.18 620762218#5.80 -66558981#7 -66558981#7.65 -66558981#7.83 -66558981#7.105 -66558981#7.123 243349944#6 243349944#7 460419011#4 -337739269#0 6343960 6343960.10 6343960.16 6343960.20 6343960.24 343521145#1 343521145#1.20 343521145#1.33 343521145#1.74 343521145#1.108 343521145#1.143 737709039#0 737709039#0.8 737709039#0.14 6383185#0 6383185#0.82 6383185#0.151 6383185#3 6383185#3.8 6384373#1 6384373#2 6384373#2.45 6384373#2.56 -65588097#1 -65588097#1.119 337818330 -460421484#1 -460421484#1.13 -6486416#2 -6486416#2.9 -6486416#2.116 805680044#1 805680044#1.7 805680044#1.49 805680044#1.91 -22917113#10 -22917113#10.7 -22917113#10.129 -22917113#10.132 -361784407#3 -361784407#3.43 -361784407#3.58 -361784407#3.88 -6360256#13 -6360256#13.8 -6360256#13.10 -6360256#13.19 -6360256#13.61 -6360256#13.76 -6360256#13.125 -6360256#9 -6360256#9.6 243349944#13 243349944#13.47 243349944#13.51 243349944#15 243349944#15.48 185485132#10 243349945#9 243349945#9.50 6494975#9 6494975#9.108 6494975#9.119 -805658294#1 -805658294#1.44 -805658294#1.57 185485132#12 185485132#12.17 805680044#8 805680044#8.47 805680044#10 279467136#0 279467136#0.117 279467136#0.122 -6463035#7 6356676#1 170683665#3 170683665#3.38 279467136#2 279467136#2.29 279467136#2.52 40416130#0 -6349133#2 -6349133#2.120 -6349133#1 6463035#10 6463035#10.48 -6353177#3 -6353177#3.7 -6353177#3.98 -6353177#3.134 336908262#4 336908262#4.6 -359671039#10 -359671039#10.86 -805658294#8 -805658294#7 -805658294#7.50 -6472289#3 243349945#15 243349945#15.47 243349945#17 243349945#18 -532125609#2 -243349944#26 -243349944#25 -243349944#24 -243349944#24.50 -243349944#22 -243349944#22.50 -243349944#20 -243349944#20.50 -6494975#7 -6447445#8 -6447445#8.50 -185485132#8 -185485132#8.81 -185485132#6 -185485132#6.52 243349338#3 243349338#3.49 6494975#3 6494975#3.99 256994205#3 428246847#0 428246847#0.8 428246847#0.22 6386110#0 6386110#0.16 6386110#0.25 6386110#0.55 -243349338#6 -243349338#6.14"/>
</vehicle>
<vehicle id = "veh25" type= "veh_passenger" depart="21630" >
<route edges =" -816616074#1 -816616074#1.10 -816616074#1.14 -816616074#1.119 428341734#4 428341734#4.8 428246439#0 428246439#0.14 428246438#0 428246438#0.8 428246440#0 428246440#0.62 -800744528#1 -800744528#1.8 -800744528#1.16 -800744528#1.37 -800744528#1.72 826314456#0 826314456#0.9 826314456#0.50 826314456#0.96 826314456#0.103 -6476313#2 -6476313#2.11 -6476313#2.29 -6476313#2.98 -6476313#2.99 -6476313#2.103 -6476313#2.107 164418944#4 164418944#4.7 164418944#4.8 164418944#4.29 164418944#4.51 164418944#4.95 32135548#0 32135548#0.6 32135548#0.48 32135548#0.53 32135548#0.64 32135548#0.89 32135548#0.90 32135548#5 32135548#5.7 32135548#5.49 32135548#5.88 32135548#9 32135548#9.7 32135548#9.47 32135548#9.63 32135548#9.78 525497323#0 525497323#0.50 525497323#2 525497323#2.81 40416132#0 40416132#0.19 460419011#3 243349944#8 243349944#9 396055523#9 396055523#9.6 396055523#9.20 396055523#9.54 396055523#11 396055523#11.17 396055523#11.23 396055523#11.42 396055523#11.62 396055523#11.85 396055523#11.96 396055523#11.121 460419028#0 460419028#0.11 460419028#0.49 460419028#0.79 460419028#0.95 243349338#0 243349338#0.18 243349338#1 -22917113#2 -22917113#1 -22917113#1.55 243339793#9 243339793#9.48 185485132#3 185485132#3.10 6464126#11 6464126#11.50 6494975#2 243349338#5"/>
</vehicle>
<vehicle id = "veh26" type= "veh_passenger" depart="21630" >
<route edges =" 817434294 817434294.10 817434294.36 817434294.44 817434294.63 817434294.119 816616072#4 816616072#4.7 816616072#4.62 816616072#4.121 6430729#0 6430729#0.7 6430729#0.86 -813722270#4 -813722270#4.8 -813722270#4.54 -813722270#4.55 -813722270#4.87 -813722270#4.122 6343949#3 6343949#3.9 6343949#3.49 -620762212#2 -620762212#2.76 -620762212#2.120 -620762213#2 -620762213#2.8 -620762213#2.87 -569505976#2 -569505976#2.9 -569505976#2.88 -569505976#2.115 -569505976#2.119 -569505978#1 -569505978#1.10 -569505979 -569505979.32 -569505979.79 337673338#0 337673338#0.14 185882764 185882764.13 185882764.14 185882765 185882765.16 185882765.26 185882765.30 185882765.31 395933841 164418944#0 164418944#0.13 164418944#0.18 164418944#0.32 164418944#0.39 -353690148#9 -353690148#9.7 -353690148#9.10 -353690148#9.12 -353690148#9.13 -353690148#9.38 -353690148#9.143 893866065#7 893866065#7.7 893866065#7.48 893866065#7.90 -893866064#2 -893866064#2.7 -893866064#2.122 -893866059#2 -893866059#2.7 -893866059#2.120 -893866059#2.121 353690154#0 353690154#0.7 353690154#0.49 353690154#0.90 353690154#4 353690154#4.6 353690154#4.49 353690154#4.54 353690154#4.87 353690154#8 353690154#8.7 353690154#8.42 353690154#8.50 353690154#8.92 353690154#12 353690154#12.6 353690154#12.32 353690154#15 353690154#15.50 243339793#0 243339793#0.48 243339793#2 243339793#2.49 -801995082 481291014#0 481291014#0.53 353690153#0 353690153#0.8 353690153#0.25 353690153#0.87 486875123#0 486875123#0.56 486875123#0.88 481291012#0 481291012#0.24 481291012#0.32 481291012#2 481291012#2.49 -6494970#7 -926425191#1 -926425191#1.73 -6523501#6 -6523501#6.6 -185485127#0 -6467507#14 -6467507#14.73 -6467507#12 -6467507#12.14 -6467507#12.24 -6467507#12.91 6516509#8 6516509#8.7 6516509#8.85 6507809#10 6507809#10.8 6507809#10.91 -6360239#7 -6360239#7.6 -6360239#7.47 -6360239#7.86 169917351#16 169917351#16.9 169917351#16.77 -6452520#2 -6452520#2.4 -6452520#2.101 6449462#0 6449462#0.9 6449462#0.46 6415147#2 6415147#3 6415147#4 -428247193#2 -428247193#2.56 -428247193#2.61 -428247193#2.96 -428247193#2.117 -428247193#2.121 -428247193#2.140 -428247193#2.154 -428247195 -428247195.5 -428247194#1 -428247194#1.9 -428247194#1.28 -157167355#3 -157167355#3.5 -157167355#3.43 -6414318#3 6497081#8 6371720#3 157167355#0"/>
</vehicle>
<vehicle id = "veh27" type= "veh_passenger" depart="21630" >
<route edges =" -814326475#2 -814326475#2.9 -814326475#2.24 -814326475#2.41 -814326475#2.70 -814326475#2.91 -723013181#2 -723013181#2.9 -723013181#2.18 -723013181#2.38 -723013181#0 -332601014#3 -332601014#3.31 -332601014#3.36 -332601014#3.42 -428246436#1 -428246436#1.13 -428246436#1.22 -428246436#1.37 -808907363#3 -808907363#3.25 -808907363#3.35 -808907363#3.48 -808907363#3.53 -808907363#3.61 -797328240#3 -797328240#3.13 -797328240#3.26 -797328240#3.65 -797328240#3.93 -797328240#3.115 -337673342#5 -337673342#5.3 -337673342#5.9 -337673342#5.13 -337673342#5.21 -337673342#5.35 -337673342#5.72 -607691082#1 -607691082#0 -6475815#3 -6475815#3.2 -6475815#3.17 -6475815#3.46 -428089348#3 -428089348#3.15 -428089348#3.21 -428089348#3.28 -428341218#2 -428341218#2.3 -428341218#2.9 -65588069#1 -65588069#1.13 -428089351#1 -428089351#1.16 -293753570#2 -293753570#2.9 -293753570#2.83 293753571#0 293753571#0.5 293753571#0.20 293753571#0.24 -353690151#2 -353690151#2.9 -353690151#2.22 -353690151#2.24 -353690151#2.39 -353690151#2.72 -353690151#2.92 -433500388#1 -433500388#1.11 -433500388#1.46 -433500388#1.73 -433500388#1.113 -433500388#1.115 -428088900#1 -428088900#1.10 -428088894#1 -428088894#1.25 -532166310#2 -532166310#2.3 -532166310#2.13 -369877039 -369877039.36 -369877039.55 -428088903#1 -428088903#1.15 428231560#0 428231560#0.10 338073582#0 338073582#0.20 -6502980#13 -6502980#13.10 -6502980#13.20 -6502980#13.36 -6502980#13.49 -6502980#13.55 -6502980#13.82 -263669002#2 -263669002#2.5 -263669002#2.46 -263669002#2.76 -263669002#2.86 369877037#0 369877037#0.9 369877037#0.83 -6516984#5 -6516984#5.11 -6516984#5.50 -6516984#5.92 -6502980#3 -6502980#3.7 -6502980#3.69 -6502980#3.84 347094711#0 347094711#0.7 347094711#0.20 347094711#0.38 347094711#0.50 347094711#0.69 347094711#0.73 347094711#0.74 347094712#0 347094712#0.21 -332223489#3 -332223489#3.4 -332223489#3.15 -332223489#3.17 -332223489#3.21 -401497115 -401497115.113 -401497115.170 -401497115.214 -428233435 -460425668 -460425668.5 425646007#0 425646007#0.10 425646007#0.17 425646007#0.20 425646007#0.22 425646007#0.27 -724644768 -724644768.35 6402586#0 6402586#0.1 6402586#0.4 6402586#0.6 6402586#0.12 6402586#0.35 6402586#0.59 6402586#4 6402586#4.72 6402586#4.75 6402586#4.77 6402586#4.80 208021560#0 208021560#0.2 208021560#0.5 208021560#0.8 208021560#0.11 208021560#0.30 208021560#0.39 208021560#0.44 208021560#0.106 208021560#0.125 208021560#0.133 208021560#0.136 739874553#0 739874553#0.66 739874553#0.80 739874553#0.88 333370569#0 333370569#0.6 333370569#0.13 333370569#0.37 333370569#0.43 333370569#0.66 333370569#0.94 333370569#0.155 333370569#0.178 333370566#0 333370566#0.32 6405076#0 6405076#0.10 6405076#0.18 6405076#0.21 6405076#0.58 6405076#0.79 6405076#0.81 347092915#0 347092915#0.8 347092915#0.32 347092915#0.44 347092915#0.89 347092915#0.182 6506833#11 6506833#11.9 6506833#11.45 6506833#11.74 6506833#11.79 6506833#15 6506833#15.8 6506833#15.10 6506833#15.35 6506833#18 6506833#18.45 -749863323#3 -749863323#3.10 -749863323#3.85 -749863323#3.126 792010743#0 792010743#0.26 792010743#0.59 792010743#2 792010743#2.11 792010743#2.16 6371699#0 6371699#0.9 -6506833#28 -6506833#28.6 -6506833#28.45 -6506833#28.63 -6506833#28.85 263712957#13 263712957#13.7 263712957#13.54 263712957#13.186 844067889#0 844067889#0.8 844067889#0.47 844067889#0.85 6371699#6 6371699#6.8 6371699#6.186 -6388742#15 -6388742#15.8 -6388742#15.46 -6388742#15.84 -6388742#11 -6388742#11.8 -6388742#11.30 -6388742#11.46 -6388742#11.67 -6388742#11.87 -6388742#5 -6388742#5.6 -6388742#5.38 -6388742#2 -6388742#2.30 -6388742#2.38 965874292#7 965874292#7.8 965874292#7.41 965874292#10 965874292#10.35 965874292#12 965874292#12.8 965874292#12.69 158123767#0 158123767#0.10 158123767#0.11 158123767#0.50 158123767#0.74 158123767#0.86 158123767#0.115 158123767#0.122 158123767#0.134 158123767#0.139 158123767#0.166 795669781 795669781.52 795669781.56 460421481#1 460421481#1.61 460421481#1.85 256997441#0 256997441#0.11 256997441#0.18 256997441#0.62 256997441#3 256997441#3.6 256997441#3.53 6351349#5 -185483733 -6414318#4 -157167355#0"/>
</vehicle>
</routes>
