<?xml version="1.0" encoding="UTF-8"?>
<routes xmlns:xsi="http: // www.w3.org/2001/XMLSchema-instance" xsi:noNamespaceSchemaLocation="http: // sumo.dlr.de/xsd/routes_file.xsd">
<vType id="veh_passenger" vClass="passenger"/>

<vehicle id = "veh0" type= "veh_passenger" depart="0" >
<route edges =" -316633577#1 -316633577#0 -797309094#1 -797309094#0 -797309094#0.6 -797309094#0.12 -797309095 -165864174#3 -165864174#2 -165864174#1 -34361024#1 -34361024#0 -34361024#0.80 -188703042#5 -188703042#4 -188703042#4.59 -188703042#3 -188703042#3.6 -188703042#3.24 -188703042#2 -188703042#1 -188703042#1.59 -188703042#1.74 -188703042#0 -188703042#0.9 -188703042#0.21 -188703049 -201989352#2 -201989352#2.8 -201989352#1 -201989352#1.9 -201989352#1.29 -201989352#0 -34361041#1 -34361041#0 -34361041#0.92 -528122494 -528122494.9 -6360234#7 -6360234#6 -6360234#6.186 -6360234#6.194 -168627934#0 -168627934#0.7 -34811472#12 -34811472#12.8 -34811472#11 -34811472#10 -34811472#9 -34811472#9.6 -34811472#9.49 -34811472#8 -34811472#7 -34811472#6 -34811472#5 -34811472#4 -34811472#4.71 -34811472#3 -34811472#3.7 -34811472#3.66 -34811472#3.122 -34811472#3.194 -34811472#2 -34811472#2.8 -34811472#2.70 -34811472#2.135 -34811472#2.192 -24024251#2 -24024251#2.7 -910274653#0 -930646447 -910274656 -210456949#12 -210456949#12.41 -210456949#11 -210456949#10 -210456949#9 -210456949#9.190 -210456949#8 -210456949#8.10 -26379345#9 -26379345#8 -26379345#8.93 24028181#3 24028181#4 24028181#4.122 24028181#5 24028181#5.186 -190017518#0 -190017518#0.7 -190017518#0.88 -999534620#25 -999534620#24 -999534620#24.3 -541349569 -541349569.193 -6356133#2 -6356133#2.8 -6356133#2.193 -6356133#1 -6356133#1.9 -6356133#0 -541349570 -819368215#0 -819368215#0.76 415870533#8 415870533#8.6 415870533#9 415870525#0 415870525#0.13 415870525#1 415870525#2 22370937#0 22370937#1 22370937#2 22370937#3 22370937#3.6 22370937#4 22370937#4.6 22370937#5 22370937#5.11 22370937#6 22370937#7 415870519#0 415870519#1 415870531#0 415870531#1 415870531#1.26 415870531#2 22370936#0 22370936#0.7 22370936#0.14 -6353149 1014203284#2 -30832687#3 -30832687#3.8 422792872#1 422792872#1.9 -6346111#4 -6346111#4.91 -6346111#4.93 195433868#5 195433868#5.7 195433868#6 195433868#6.6 -7840628#2 -7840628#2.8 -7840628#1 -7840628#1.193 168627943#7 168627943#7.7 -24164451#1 -24164451#1.7 -24164451#1.193 -24164451#0 24164453 24164453.10 24164453.23 32456680 32456680.2 -422947668 -422947668.11 -233686193 -233686193.8 -196750859#2 -196750859#1 -196750859#1.40 6378198#0 6378198#0.13 6378198#0.178 6378198#0.195 6378198#1 6378198#2 6378198#3 6378198#3.3 6378198#4 6378198#4.3 697544433#2 697544433#2.14 6351007#0 6351007#0.29 6351007#0.46 6351007#0.52 6351007#0.56 6351007#0.62 6351007#0.66 6351007#0.72 6351007#0.77 6351007#0.83 6351007#0.89 6351007#0.98 6351007#1 -6332167#0 -6332167#0.10 6386692#3 6386692#3.3 6386692#3.6 6386692#3.9 6338567#0 6338567#0.10 6338567#0.118 6338567#1 6338567#1.107 6338567#2 6338567#3 6338567#3.80 6338567#4 6338567#4.78 6338567#5 6338567#5.8 6338567#6 6338567#7 6338567#7.90 6338567#8 6338567#8.11 6338567#9 6338567#10 6338567#11 6338567#12 30156401#0 -6333513#3 -6333513#3.137 -11043363#3 -11043363#3.7 -11043363#2 -11043363#1 -11043363#0 7857575#0 7857575#0.10 7857575#0.24 7857575#0.39 7857575#0.57 7857575#0.75 7857575#0.88 7857575#0.126 7857575#0.144 7857575#0.146 7857575#0.162 7857575#0.184 7857575#0.212 7857575#0.218 7857575#0.224 7857575#0.229 7857575#0.241 7857575#0.275 7857575#0.303 7857575#0.315 7857575#0.324 7857575#0.326 7857575#0.339 7857575#0.350 7857575#0.357 7857575#0.360 7857575#0.410 7857575#1 7857575#1.42 7857575#1.66 7857575#1.85"/>
</vehicle>
<vehicle id = "veh1" type= "veh_passenger" depart="0" >
<route edges =" 797309093 797309091#0 797309091#0.10 797309091#1 797309091#1.7 797309091#2 797309091#2.10 797309091#2.15 797309091#3 377635148 377635148.3 377635148.5 -437142992 -437142992.6 -6329160 -6329160.124 -6329160.133 785854260#3 785854260#3.11 785854260#3.30 -763290363 -763290363.11 -24620691#4 -24620691#3 -24620691#2 -24620691#1 -24620691#0 24620690 24620690.5 -24620688 24620689#0 24620689#0.6 24620689#1 24620689#1.9 -201989358#2 -201989358#2.18 -201989358#1 -201989358#1.6 -201989358#1.82 -201989358#0 -195430724#15 -195430724#14 -195430724#14.20 -195430724#13 -195430724#13.78 -195430724#12 -195430724#12.8 -195430724#12.12 -195430724#11 -195430724#11.17 -164659478#5 -164659478#5.7 -164659478#4 -6362542#1 -6362542#1.7 -6362542#0 -6362542#0.104 -7783135#3 -7783135#3.7 -7783135#2 -7783135#2.7 -7783135#1 -7783135#0 -7783135#0.101 43256415 43256415.22 -6345181#8 -6345181#8.4 -6345181#8.7 -6345181#8.93 541334899#0 541334899#0.7 541334899#1 541334899#2 541334899#3 541334899#4 541334899#5 541334900#0 541334900#1 541334900#2 541334900#3 541334900#4 541334900#5 541334900#6 698994092#3 698994092#4 698994092#4.84 6348015 6348015.7 761330890 761330889#0 761330889#1 761330889#2 761330889#3 761330889#3.83 761330889#4 517593873#2 517593873#2.29 517593873#3 415876778 22278225#0 22278225#0.24 22278225#1 22278225#1.6 22278225#1.16 22278225#1.26 196779231#0 196779231#0.12 196779231#1 196779231#1.17 21452694#0 21452694#0.5 21452694#0.7 21452694#0.9 21452694#0.14 21452694#0.21 21452694#0.27 21452694#0.101 21452694#1 21452694#1.9 21452694#1.14 21452694#1.27 21452694#2 415878130#0 415878130#1 415878131#0 415878131#1 682209186 196779232 196779232.9 415878126 415878126.6 415878137#0 415878137#1 194859188#0 194859188#1 194859188#1.24 415878134#0 415878134#1 202177316#0 202177316#1 202177316#2 415878127 415878127.3 415878136#0 415878136#1 -415876790#1 -415876790#0 -756453993 -559526390 -559526390.35 -164658213#11 -164658213#11.10 -164658213#11.12 -164658213#10 -164658213#10.55 -164658213#9 -164658213#8 -164658213#7 -164658213#6 -164658213#6.156 -164658213#5 -164658213#5.7 -164658213#4 -164658213#4.36 -164658213#3 -164658213#2 -164658213#1 -164658213#0 -164658213#0.113 164658212#0 164658212#0.7 164658212#1 193256683#0 193256683#1 193256683#1.83 -618189913#5 -618189913#5.7 -618189913#5.17 -618189913#5.34 -618189913#4 -618189913#4.5 -618189913#4.9 -618189913#4.25 -618189913#3 -618189913#2 -618189913#1 -618189913#1.76 -618189913#1.91 -618189913#0 -618189913#0.6 -618189913#0.24 -618189913#0.90 -618189913#0.190 -618189913#0.204 -618189913#0.219 -618189913#0.231 -694455409#6 -694455409#6.8 -694455409#6.11 -694455409#6.20 -694455409#6.38 -694455409#5 -694455409#5.10 -694455409#5.23 -694455409#5.42 -694455409#5.118 6402116#0 6402116#0.7 6402116#0.10 6402116#0.16 6402116#0.20 6402116#0.54 6402116#0.162 6402116#0.179 6402116#0.194 6402116#0.209 6402116#0.228 6402116#0.245 6402116#0.264 6402116#0.286 6402116#0.307 6402116#0.326 6402116#0.377 6402116#0.411 6402116#0.433 -190579762#17 -190579762#17.47 6341488#16 6341488#16.13 6341488#16.20 6341488#16.48 6341488#16.58 6341488#16.72 6341488#16.96 6341488#16.142 6341488#16.158 6341488#16.170 6341488#16.183 6341488#16.197 -6336093#4 -6336093#4.17 -6336093#4.38 -6336093#4.53 -6336093#4.79 -6336093#4.90 -6336093#3 -6336093#3.13 -6336093#3.25 -6336093#3.39 -6336093#3.120 -6336093#3.127 -6336093#3.135 -6336093#2 -6336093#1 -6339085#8 -6339085#8.12 -6339085#8.19 -6339085#8.28 -6339085#8.38 -6339085#8.98 -6339085#8.116 -6339085#7 -6339085#7.29 -6339085#7.47 -6339085#7.68 -6339085#7.87 -6339085#7.110 -6339085#6 -6339085#5 -6339085#5.13 -6339085#5.24 -6339085#5.39 -6339085#4 -6339085#4.58 -6339085#4.92 -6339085#4.103 -6339085#3 -6339085#3.11 -6339085#3.19 -6339085#3.40 -6339085#3.47 -6339085#3.56 -6339085#3.68 -6339085#3.81 -6339085#3.95 -6339085#3.107 -6339085#3.120 -6339085#2 -6339085#2.14 -6339085#2.26 -6339085#2.37 -6339085#2.49 -6339085#2.63 -6339085#2.115 -6339085#2.125 -6339085#2.140 -6339085#1 -6339085#0 -6339085#0.12 -6339085#0.27 -6339085#0.45 -6339085#0.77 -6339085#0.87 -6339085#0.98 -6339085#0.119 -6339085#0.129 -190579779#0 -190579779#0.109 -190579779#0.117 6333513#0 6333513#0.10 6333513#0.40 6333513#0.51 6333513#0.62 6333513#0.73 6407689#0 -11043364#4 -11043364#3 -11043364#2 -11043364#1 -11043364#0 -11043364#0.73 -11043364#0.81 -7857575#1 -7857575#1.27 -7857575#1.57 -7857575#1.75 -7857575#1.83 -7857575#1.99 -7857575#1.115 -7857575#1.152 -7857575#1.166 -7857575#1.179 -7857575#1.219 -7857575#1.229 -7857575#1.268 -7857575#1.290 -7857575#1.315 -7857575#1.332 -7857575#1.343 -7857575#1.361 -7857575#1.378 -7857575#1.390 -7857575#1.402 -7857575#1.416 -7857575#1.443 -7857575#1.452 -7857575#1.462"/>
</vehicle>
<vehicle id = "veh2" type= "veh_passenger" depart="3605" >
<route edges =" -316633577#1 -316633577#0 -6340080#2 -6340080#1 -6340080#0 -6340080#0.27 -201989373 -201989373.4 -201989373.9 -201989373.42 678979330 678979330.18 24620199 24620199.9 24620199.11 201989357 201989357.9 201989357.10 201989357.21 201989357.53 -5149904#1 -5149904#1.7 -5149904#0 -5149904#0.2 -34361024#1 -34361024#0 -34361024#0.80 -188703042#5 -188703042#4 -188703042#4.59 6402088#1 6402088#1.8 6402088#1.193 -24620691#3 -6347955 -6347955.7 -188703042#2 -188703042#1 -188703042#1.59 -188703042#1.74 6338310#2 6338310#2.9 6338310#3 6338310#3.92 -24620691#0 24620690 24620690.5 -24620688 24620689#0 24620689#0.6 24620689#1 24620689#1.9 201989358#3 201989358#4 201989358#4.1 201989358#4.6 201989358#4.90 201989358#5 201989358#5.9 201989358#5.78 201989358#5.98 -37963097#2 -37963097#2.8 -759762166 759762167 759762167.1 -34361042 -34361042.8 -34361042.97 -528122494 -528122494.9 -164659477#8 -164659477#8.7 -6362542#2 -6362542#2.12 -6362542#2.19 -6362542#2.179 164659478#4 -6360234#6 -6360234#6.186 -6360234#6.194 168627934#1 168627934#1.103 -195430724#5 -195430724#5.10 -195430724#5.24 -195430724#4 -195430724#3 -195430724#3.5 -195430724#3.137 -164659473#12 -164659473#12.8 -164659473#11 -164659473#10 -164659473#10.7 -164659473#9 -164659473#8 -164659473#8.12 -164659473#7 -164659473#7.13 -164659473#6 -164659473#6.16 202317716#13 202317716#13.7 202317716#14 -24024250#6 -24024250#5 -24024250#5.8 -24024250#4 -24024250#4.80 25316538#1 25316538#2 25316538#3 25316538#3.45 25316538#4 25316538#4.7 164659438#1 164659438#1.7 164659438#2 164659438#2.44 -202317716#8 -202317716#8.7 -202317716#7 -202317716#6 -202317716#5 -34811472#5 -34811472#4 -34811472#4.71 -34811472#3 -34811472#3.7 -34811472#3.66 -34811472#3.122 -34811472#3.194 164659447#1 164659447#1.7 164659447#1.91 164659489#3 164659489#3.1 164659489#3.3 164659489#3.4 164659489#3.6 164659489#4 164659489#0 164659489#0.1 164659489#0.2 164659489#0.4 164659446 164659446.3 164659446.87 164659505#3 164659505#3.1 164659505#3.3 164659505#3.4 164659505#3.6 -164659479 -164659479.3 -164659479.186 164659511#2 164659511#2.1 164659511#2.2 164659511#2.4 164659511#2.5 164659511#3 164659511#3.1 164659511#3.3 164659511#3.4 164659511#3.6 164659511#4 164659511#0 164659511#0.1 164659511#0.3 164659511#0.4 164659462#0 164659462#0.3 164659462#0.87 164659462#1 164659462#1.7 164659462#1.92 164659509#3 164659509#3.1 164659509#3.3 164659509#3.4 164659509#3.6 -25315987 -25315987.3 25315985 25315985.7 25315985.12 -819364512#6 6401499 25316479 25316479.6 202317700#3 202317700#3.60 202317700#4 202317700#4.26 202317700#4.88 25316471 25316471.9 25316471.12 25316471.237 -6344484#2 -6344484#2.7 -25315896#2 -6342542#3 -6342542#3.171 -421385008#2 -421385008#2.7 -421385008#1 -421385008#1.16 -421385008#0 -421385008#0.7 -421385008#0.69 -421385008#0.71 -10723756#5 -10723756#5.9 -6404960 6334729#2 6334729#2.41 -6372435#4 -6372435#4.116 -6372435#4.220 -6372435#3 -6372435#3.8 -6372435#2 -6372435#1 -6342542#1 -6342542#1.88 -6342542#0 196739917#8 196739917#9 196739917#10 198549475#0 198549475#1 198549475#1.3 198549475#2 198549475#2.171 421385008#5 421385008#5.7 421385008#6 417696932#0 417696932#0.10 417696932#1 -778470340#6 -778470340#5 -778470340#5.17 -778470340#4 -778470340#3 -778470340#2 -778470340#1 -778470340#0 -778470340#0.10 -778470340#0.19 -416102058 -416102058.7 -202317703#1 -202317703#1.15 -202317703#0 416111293#0 416111293#1 202317699#0 202317699#0.17 202317699#1 202317699#2 202317699#3 819364512#1 819364512#2 819364512#3 819364512#3.68 515885395#1 515885395#1.7 515885395#1.27 515885395#2 515885395#2.13 416111322 416111322.12 575429935#0 575429935#0.7 575429935#0.26 575429935#1 575429935#2 517593874#0 517593874#1 25315452#0 25315452#1 25315452#1.1 25315452#2 25315452#3 25315452#3.137 164659515#4 164659515#0 164659515#0.1 164659515#0.2 164659515#0.4 164659515#1 164659515#1.1 164659515#1.3 164659515#1.4 164659515#1.6 164659515#2 164659515#2.1 164659515#2.3 164659515#2.4 164659515#2.6 -24024251#3 -24024251#3.3 -24024251#3.88 -24024251#2 -24024251#2.7 -910274653#0 -930646447 -910274656 -210456949#12 -210456949#12.41 -210456949#11 -210456949#10 -210456949#9 -210456949#9.190 201989365#4 201989365#4.8 201989365#4.74 201989365#4.86 201989365#5 172616532#0 172616532#1 172616532#1.2 172616532#1.30 172616532#1.49 172616532#1.57 172616532#1.69 172616532#1.89 172616532#1.107 172616532#1.117 172616532#1.124 172616532#1.133 172616532#2 172616532#2.7 172616532#2.17 172616532#3 172616532#3.6 172616532#3.13 172616532#4 172616532#4.0 172616532#4.3 32456661#4 32456661#4.8 32456661#4.92 6384487#14 6384487#14.6 6384487#14.9 6384487#15 6384487#16 6384487#17 6384487#17.26 6384487#17.33 6384487#17.39 6384487#18 1000718782#3 6351923#0 6351923#0.6 6351923#0.22 6351923#1 -6332538#10 -6332538#9 -6332538#9.6 -6332538#8 -6332538#8.9 -6332538#8.17 -6332538#8.27 -6332538#7 -6332538#7.26 -6332538#7.30 32456661#6 32456661#6.8 32456661#7 32456661#8 32456661#8.35 -25968351#5 -25968351#5.187 -25968351#5.190 -201989365#10 -201989365#10.8 -201989365#10.77 -201989365#10.92 -201989365#9 -201989365#9.8 -201989365#9.22 -201989365#9.93 -6384487#12 -6384487#12.10 -6384487#12.12 -6384487#12.149 26379345#12 26379345#12.7 -6332538#4 -6332538#4.7 -6332538#4.193 25968337#13 25968337#13.7 25968337#14 25968337#15 25968337#15.7 25968337#15.104 25968349#3 25968349#4 25968349#4.5 168627951#0 168627951#0.7 168627951#0.65 6342406#0 6342406#0.7 6342406#1 6342406#1.48 201989350#7 201989350#7.7 201989350#7.82 -6350384#0 -6350384#0.9 -6350384#0.196 168627951#3 168627951#4 168627951#5 168627951#6 168627951#7 168627951#8 6333782#0 6333782#1 -417696901#1 -417696901#1.55 -417696901#1.80 -417696901#0 417696931#0 417696931#1 417696931#1.1 417696931#1.37 417696914 25315667#0 25315667#1 25315667#1.70 25315667#2 25315667#3 -164659486#3 -164659486#2 -164659486#2.5 -6350384#2 -780990149#0 -780990149#0.83 780990150 780990150.7 780990150.90 780990150.93 164659502#3 164659502#3.1 164659502#3.3 164659502#3.4 164659502#3.6 164659502#4 164659502#0 164659502#0.1 164659502#0.2 164659502#0.4 164659444 164659444.3 164659444.7 164659444.57 164659444.85 164659444.87 164659499#3 164659499#3.1 164659499#3.3 164659499#3.4 164659499#3.6 164659499#4 164659499#0 164659499#0.1 164659499#0.2 164659499#0.4 164659499#1 164659499#1.1 164659499#1.3 164659499#1.4 164659499#1.6 164659452#0 164659452#0.3 164659452#0.6 164659452#0.22 164659452#1 164659452#2 164659452#2.20 164659452#3 164659452#3.21 164659452#4 196739912#1 196739912#2 196739912#3 196739912#4 196739912#5 196739912#6 196739912#7 196739912#8 196739912#9 196739912#10 416111313#0 416111313#1 416111313#2 -574055688#20 -574055688#19 -164659443#2 -164659443#2.8 -164659443#2.9 -164659443#1 -164659443#0 -164659443#0.43 -164659443#0.45 164659506#1 164659506#1.1 164659506#1.2 164659506#1.4 164659506#1.5 164659506#2 164659506#2.1 164659506#2.2 164659506#2.4 164659506#2.5 164659506#3 164659506#3.1 164659506#3.2 164659506#3.4 164659506#3.5 164659506#3.7 -164659464 -164659464.3 -164659464.8 -164659464.75 -164659464.78 164659490#2 164659490#2.1 164659490#2.2 164659490#2.4 164659490#2.5 -164659471 -164659471.4 -164659471.5 -164659471.44 -164659471.85 -164659471.88 164659496#1 164659496#1.1 164659496#1.2 164659496#1.4 164659496#1.5 164659496#2 164659496#2.1 164659496#2.3 164659496#2.4 164659496#2.6 -164659472 -164659472.3 -164659472.87 164659488#1 164659488#1.1 164659488#1.2 164659488#1.4 164659488#1.5 164659488#2 164659488#2.1 164659488#2.2 164659488#2.4 164659488#2.5 -164659470 -164659470.3 -164659470.38 -164659470.87 164659491#1 164659491#1.1 164659491#1.2 164659491#1.4 164659491#1.5 164659491#2 164659491#2.1 164659491#2.3 164659491#2.4 164659491#2.6 -6343678#5 -6343678#5.4 -6343678#5.55 -6343678#5.88 -164659480 -164659480.7 -164659480.92 -164659480.156 -164659480.222 164659492#2 164659492#2.1 164659492#2.3 164659492#2.4 164659492#2.6 164659492#3 164659492#3.1 164659492#3.3 164659492#3.4 164659492#3.6 164659492#4 164659492#0 164659492#0.1 164659492#0.2 164659492#0.4 164659433 164659433.4 164659433.86 164659494#3 164659494#3.1 164659494#3.3 164659494#3.4 164659494#3.6 164659494#4 164659494#0 164659494#0.1 164659494#0.3 164659494#0.5 164659434 164659434.4 164659434.87 164659508#3 164659508#3.1 164659508#3.3 164659508#3.4 164659508#3.6 -6359161#1 -6359161#1.3 -6359161#1.5 -6359161#1.44 -6359161#0 -6359161#0.43 -6359161#0.83 22370934#1 22370934#1.86 22370934#1.92 22370934#2 22370934#2.6 22370934#3 22370934#4 415883911#0 415883911#0.30 415883911#1 415883933#0 415883933#1 415883933#2 415883933#3 415883918 415883918.26 6347639#9 6347639#9.7 6347639#9.9 6347639#9.66 6347639#10 6347639#11 6347639#11.17 6347639#11.65 25968353#1 25968353#1.0 25968353#1.1 25968353#1.2 25968353#1.3 25968353#1.4 25968353#1.5 25968353#2 25968353#2.1 25968353#2.2 25968353#2.3 25968353#2.4 25968353#2.5 25968353#2.6 25968353#3 25968353#3.1 25968353#3.2 25968353#3.3 25968353#3.4 -25968346#2 -25968346#2.3 -25968346#2.8 -25968346#1 -25968346#0 -25968346#0.40 25968357#2 25968357#2.1 25968357#2.3 25968357#2.4 25968357#2.6 25968357#3 25968357#3.1 25968357#3.3 25968357#3.4 25968357#3.6 -25968345#3 -25968345#3.3 -25968345#3.87 -25968345#2 -25968345#2.7 -25968345#2.93 6384487#8 6384487#8.7 6384487#8.56 6384487#8.69 -25968337#11 -25968337#10 -25968337#9 210456949#6 210456949#7 210456949#7.83 210456949#7.96 210456949#7.112 210456949#7.125 -26379345#9 25968342#3 25968342#3.6 25968342#3.168 -201989365#2 -201989365#2.8 -201989365#2.25 -201989365#2.92 24028181#1 24028181#1.10 24028181#2 24028181#2.148 24028181#3 24028181#4 24028181#4.122 -25968337#6 -25968337#6.87 -25968337#6.89 999534620#28 999534620#28.8 999534620#28.11 -22649938#1 -22649938#0 -22649938#0.57 -22649938#0.69 -22649938#0.164 -22649938#0.169 -22649938#0.172 423105092#0 423105092#0.4 423105092#0.8 423105092#0.11 423105092#1 423105092#1.91 541351345 541351345.8 27877609#0 27877609#1 423105088#0 423105088#1 541351341 541351341.163 -233699763#2 -233699763#2.7 -233699763#2.9 -233699763#2.71 -233699763#2.92 -233699763#1 -233699763#1.11 -233699763#0 -541061780#2 -541061780#1 -541061780#1.84 -541061780#0 -541061780#0.6 -27767100#1 -27767100#0 -196739942#4 -196739942#3 -196739942#2 -196739942#1 -196739942#0 -6336803#7 -6336803#6 -6336803#5 -6336803#5.41 -6336803#4 -6336803#3 -6336803#2 -6336803#1 -6336803#0 -195595372#2 -195595372#1 -195595372#0 -415876803#2 -415876803#1 -415876803#0 415876796#0 415876796#1 415876796#2 296976973#0 296976973#0.2 296976973#0.6 296976973#1 296976973#1.128 296976973#2 -541350929#1 -541350929#0 -541350929#0.84 -164659430#3 -164659430#3.8 -164659430#3.92 -164659430#2 -164659430#2.8 -164659430#1 -164659430#1.92 -25968337#3 -25968337#3.7 -25968337#3.10 -25968337#3.194 -23874081#0 -23874081#0.8 -23874081#0.91 541350678 541350678.6 541350678.193 6373282#0 6373282#0.6 6373282#0.193 6373282#1 6373282#1.8 -999534620#26 -999534620#26.51 -999534620#26.67 -999534620#26.74 -999534620#25 -999534620#24 -999534620#24.3 -999534620#23 -999534620#23.52 -999534620#23.73 -999534620#22 415870533#0 415870533#1 415870533#1.183 415870533#1.187 164659441#2 164659441#2.7 164659441#2.9 -6356133#2 -6356133#2.8 -6356133#2.193 -541349219#2 -541349219#2.75 -541349219#2.77 415870533#3 415870533#3.7 415870533#4 415870533#5 415870533#6 415870533#7 415870533#7.17 415870533#7.70 415870533#7.162 415870533#7.211 415870533#8 415870533#8.6 415870533#9 415870525#0 415870525#0.13 415870525#1 415870525#2 22370937#0 22370937#1 22370937#2 22370937#3 22370937#3.6 22370937#4 22370937#4.6 22370937#5 22370937#5.11 22370937#6 22370937#7 415870519#0 415870519#1 415870531#0 415870531#1 415870531#1.26 415870531#2 415870531#3 415870531#4 415870526#0 415870526#0.35 415870526#1 1014203284#0 1014203284#0.7 1014203284#1 1014203284#2 30832687#4 30832687#4.8 22370936#2 22370936#2.9 24314606#1 7841698#3 7841698#4 7841698#4.7 7841698#4.8 7841698#5 7841698#5.31 7841698#5.33 -363370643#3 -363370643#3.7 -363370643#2 -363370643#2.27 22370936#6 22370936#6.7 22370936#6.13 22370936#6.194 22370936#6.195 22370936#7 22370936#7.5 22370936#7.7 22370936#8 22370936#8.6 22370936#8.8 415884022#3 415884016 415884016.15 415884016.19 -24314605#10 -24314605#10.6 -24314605#10.9 -24314605#10.11 -24314605#9 -24314605#8 -24314605#7 -24314605#7.120 -24314605#6 -24314605#6.6 -24314605#5 -24314605#5.92 -24314605#5.96 -24314605#4 -24314605#4.7 -24314605#4.8 -24314605#3 -24314605#2 -24314605#1 -6333700#4 -6333700#4.7 -6333700#4.93 -6333700#3 -6333700#3.6 -6333700#3.89 -6333700#3.91 -6333700#2 -6333700#2.7 -6333700#2.9 -6336003#3 -6336003#3.7 -6336003#2 -6336003#2.56 -6336003#1 -6336003#1.9 -6336003#1.59 -6336003#1.73 -6336003#0 -6336003#0.64 -30832687#0 -30832687#0.21 -422929506 -422929504 -422929504.11 -422929505#1 -6339229#0 164658838#1 426767275 426767274 -24164436 -24164436.57 -24164436.115 -113629978#3 -113629978#3.7 -113629978#2 -113629978#2.67 6336821#1 6336821#2 6336821#3 6336821#3.34 6336821#4 -574396276#1 -574396276#0 -574396275 -24297044#11 -24297044#11.15 -24297044#11.132 -6335796#1 -6335796#1.8 -6335796#1.90 -113629978#0 -113629978#0.7 -113629978#0.88 -113629978#0.107 -113629978#0.128 -113629978#0.146 24297035#3 24297044#9 24297044#9.14 6399617#0 6399617#1 6399617#1.7 6399617#1.18 6399617#1.29 6399617#1.64 6399617#1.73 6399617#1.81 -22372605#3 -22372605#2 -22372605#2.28 -22372605#2.31 -22372605#1 -22372605#0 -22372605#0.11 -422792870 -422792870.8 -422792870.23 -422792870.38 -422792870.77 -422792870.83 -422792870.100 -422792869#4 -422792869#4.7 -422792869#3 -422792869#3.5 6330089#1 6330089#1.63 6330089#1.129 6330089#1.194 -233698097#3 -233698097#3.7 -233698097#2 -233698097#2.7 -233698097#1 -233698097#1.6 -233698097#1.70 -22372604 -22372604.7 -22372604.194 22372606 22372606.6 22372606.13 22372606.20 -541341824 -541341824.8 -541341824.10 -541341824.25 541341325 -772677033#3 -772677033#2 -27008007#7 -42639731#2 -42639731#2.113 -42639731#2.192 -42639731#1 -42639731#1.7 -42639731#1.134 -42639731#1.196 -42639731#1.197 189141431#13 189141431#13.69 772677033#0 772677033#0.197 35602546#5 35602546#5.6 35602546#6 35602546#6.19 35602546#6.26 35602546#6.29 35602546#7 772677035#1 772677035#1.7 772677035#1.188 -27008007#9 -27008007#9.18 772677036#3 22372609#2 22372609#2.2 22372609#2.4 22372609#2.6 22372609#2.9 22372609#3 22372609#3.1 22372609#3.3 22372609#3.5 22372608#0 22372608#0.3 22372608#0.6 22372608#0.12 22372608#0.174 22372608#0.175 6347540 6347540.48 -188283697 -188283697.8 -188283697.17 188283693#0 188283693#0.8 188283693#1 188283693#2 188283693#3 188283693#4 -593529471 -593529471.7 -593529471.11 -593529471.16 -593529471.61 -221321162#1 -221321162#1.19 -221321162#1.248 -221321162#1.250 21485403#5 21485403#5.8 21485403#5.79 21485403#5.90 21485403#6 21485403#6.7 21485403#6.18 21485403#7 21485403#7.7 21485403#7.65 195595366#0 195595366#0.3 -6338840#2 -6338840#2.8 -6338840#2.10 -6338840#2.17 -6338840#2.26 -6338840#2.58 -6338840#2.75 -6338840#2.100 -6338840#2.124 -6338840#1 6404744 6404744.18 6404744.53 6404744.58 6404744.65 6404744.71 6404744.77 6404744.95 6404744.109 6404744.121 195595366#7 195595366#8 195595366#8.11 195595366#8.14 7913792#0 7913792#0.7 7913792#0.28 7913792#0.38 7913792#0.46 7913792#1 7913792#1.7 7913792#2 7913792#2.5 7913792#2.11 24164438 24164438.2 24164438.5 24164438.18 24164438.99 6346104#1 6346104#1.6 -168627943#1 6346111#0 6346111#1 6398141#0 6398141#0.8 6398141#0.98 6398141#0.125 6398141#0.165 6398141#0.167 6398141#1 6398141#1.7 6398141#1.10 7840628#2 7840628#2.193 195433868#7 195433868#7.6 195433868#7.93 -24164451#4 -24164451#4.7 -24164451#4.9 -24164451#4.193 -24164451#4.194 -24164451#3 -24164451#3.6 -24164451#3.8 -24164451#3.104 -24164451#2 -24164451#2.59 168627943#8 168627943#9 168627943#10 32456218#0 32456218#1 32456218#1.84 32456218#2 32456218#2.7 32456218#2.92 -22277720#2 -6402601#3 -6402601#3.93 -6402601#2 -6402601#2.6 -6402601#2.92 -26723188#0 -26723188#0.7 -26723188#0.29 -32866333 -32866333.30 -32866333.52 6356111#0 6356111#0.11 6356111#1 6356111#1.59 6356111#1.61 6356111#1.64 -6378710 -6378710.2 -6378710.5 -6378710.11 -6378710.17 -6378710.33 -6378710.43 -6378710.58 -6378710.70 -6378710.82 -6378710.100 -195595360#1 -195595360#1.30 -195595360#1.63 -195595360#1.84 -195595360#1.111 -195595360#0 -460683945#1 -460683945#0 -460683946#1 -460683946#0 -415884036 -415884036.2 -417526452 -417526452.5 -417526452.27 -417526430 -196750859#2 -196750859#1 -196750859#1.40 6378198#0 6378198#0.13 6378198#0.178 6378198#0.195 6378198#1 6378198#2 6378198#3 6378198#3.3 6378198#4 6378198#4.3 6408035 6408035.10 697544432 697544432.9 415884026#0 415884026#1 415884026#1.1 30832954#0 30832954#1 30832954#1.83 30832954#1.105 30832954#1.115 30832954#1.126 30832954#1.148 30832954#1.165 30832954#1.179 30832954#1.191 30832954#1.194 415884028 415884028.22 415884027 22278221 22278221.11 22278221.16 22278221.32 -22278227#3 -22278227#2 -22278227#1 541337642 541337642.7 -6375690 -6375690.18 -6375690.45 -6375690.64 -6375690.85 -6375690.105 -6375690.129 -6375690.151 -6375690.165 -6327827#1 -6327827#1.7 -6327827#0 -6327827#0.170 541338171#0 187827704#2 187827704#2.7 187827704#2.15 187827704#2.33 187827704#2.51 187827704#2.70 187827704#2.88 187827704#2.107 187827704#2.123 187827704#2.139 187827704#2.159 187827704#2.236 187827704#2.255 187827704#2.270 187827704#2.279 6338567#1 6338567#1.107 6338567#2 6384655 6384655.5 6384655.17 6384655.30 6384655.48 6384655.61 6384655.78 6384655.94 6384655.110 6384655.135 6384655.156 6384655.172 6384655.189 6384655.204 6384655.214 6384655.225 6384655.233 6384655.237 -694455409#3 -694455409#3.4 -694455409#3.6 -694455409#3.10 -694455409#3.32 -694455409#3.62 -694455409#3.77 -694455409#3.89 -694455409#1 -694455409#1.21 -694455409#0 -694455409#0.15 -694455409#0.26 -694455409#0.37 -694455409#0.48 -694455409#0.58 -694455409#0.68 -694455409#0.104 -694455409#0.109 -694455409#0.119 6338567#5 6338567#5.8 -6341488#12 -6341488#12.15 -6341488#12.26 -6341488#12.42 -6341488#12.55 -6341488#12.74 -6341488#11 -6341488#11.22 -6341488#11.37 -6341488#11.49 -6341488#10 -6341488#10.15 -6341488#10.27 -6341488#10.40 -6341488#10.58 -6341488#10.73 -6341488#10.85 -6341488#10.95 -6341488#10.107 -6341488#10.117 -6341488#9 -6341488#9.5 -6341488#9.13 -6341488#8 6369262#0 6369262#0.30 6369262#0.59 6369262#1 6369262#1.18 6369262#1.31 6369262#1.47 6369262#1.71 190579762#7 190579762#7.19 190579762#7.47 190579762#7.60 190579762#7.72 190579762#7.85 190579762#7.97 190579762#7.111 190579762#7.151 190579762#7.159 190579762#7.176 190579762#7.183 190579762#8 190579762#8.18 190579762#8.33 190579762#8.47 190579762#8.64 190579762#8.84 190579762#8.105 190579762#8.122 190579762#8.142 190579762#8.152 6338567#8 6338567#8.11 6338567#9 6338567#10 6339085#5 6339085#5.26 6339085#5.42 6339085#5.53 6335820 6335820.8 6335820.17 6335820.61 6335820.74 6335820.81 6335820.90 6335820.96 6335820.103 6335820.110 6335820.134 6335820.141 6331171#2 6331171#2.20 6331171#2.38 6331171#2.59 6335821 6335821.6 6335821.12 6335821.132 6335821.143 6335821.154 6335821.165 6335821.179 6335821.187 -190579811#2 -190579811#2.12 -190579811#2.16 -190579811#2.27 -190579811#2.39 -190579811#2.49 -190579811#2.50 30156401#0 -6333513#3 -6333513#3.137 -11043363#3 -11043363#3.7 -11043363#2 -11043363#1 6361146#0 6361146#0.52 6361146#0.64 6361146#0.89 6361146#0.103 6361146#0.116 6361146#0.128 6361146#0.148 6361146#0.201 6361146#0.214 6361146#0.230 6361146#0.246 6361146#0.259 6361146#0.276 -6361141 -6361141.7 194872395#4 194872395#4.5 194872395#4.9 194872395#4.12 194872395#4.17 194872395#4.22 194872395#4.29 194872395#4.115 194872395#4.139 194872395#4.158 194872395#4.166 194872395#4.175 194872395#4.193 194872395#4.217 194872395#4.233 7857575#0 7857575#0.10 7857575#0.24 7857575#0.39 7857575#0.57 7857575#0.75 7857575#0.88 7857575#0.126 7857575#0.144 7857575#0.146 7857575#0.162 7857575#0.184 7857575#0.212 7857575#0.218 7857575#0.224 7857575#0.229 7857575#0.241 7857575#0.275 7857575#0.303 7857575#0.315 7857575#0.324 7857575#0.326 7857575#0.339 7857575#0.350 7857575#0.357 7857575#0.360 7857575#0.410 7857575#1 7857575#1.42 7857575#1.66 7857575#1.85"/>
</vehicle>
<vehicle id = "veh3" type= "veh_passenger" depart="3605" >
<route edges =" 797309093 797309091#0 797309091#0.10 797309091#1 797309091#1.7 797309091#2 797309091#2.10 797309091#2.15 797309091#3 377635148 377635148.3 377635148.5 377635149#0 377635149#0.19 377635149#0.28 377635149#0.40 377635149#0.54 377635149#1 377635149#1.77 6348380#2 6348380#2.74 6348380#2.87 6348380#2.97 6333080 6333080.6 -6346195#0 -6346195#0.5 -6346195#0.16 -6346195#0.24 -6346195#0.36 437142998 184924125#0 184924125#1 184924125#1.14 184924125#1.70 184924125#1.93 184924125#1.122 184924125#1.145 184924125#1.162 184924125#1.179 184924125#1.196 184924125#1.208 437142999#0 437142999#1 437143005#0 437143005#0.19 437143005#0.31 437143005#0.52 437143005#0.61 437143005#0.69 437143005#0.81 437143005#0.144 437143005#1 437143005#1.10 437143005#1.47 437143005#1.65 437143005#2 437143005#2.14 437143005#3 437143005#3.37 437143005#3.48 437143005#4 437143005#4.7 437143005#4.13 437143005#4.23 437143005#4.33 437143005#4.45 437143005#4.57 437143005#4.72 437143005#4.86 437143005#4.103 437143005#4.115 437143005#4.172 437143000 -6359476#3 -6359476#3.12 -6359476#3.19 -6359476#3.60 -6359476#3.73 -6359476#3.84 -6359476#3.95 -6359476#3.111 -6359476#3.131 -6359476#3.156 -6359476#3.181 -6359476#3.208 -6359476#3.228 -6359476#3.248 -6359476#2 -6359476#1 6340413 6340413.12 6340413.132 6340413.144 6340413.154 6340413.186 6340413.193 6340413.206 6340413.217 6340413.230 6340413.239 6340417 6340417.9 6340417.18 6340417.28 6340417.48 -437142994 -437142994.7 -437142994.15 -437142994.36 -437142994.47 -437142994.59 -437142994.71 -437142994.80 -6359479 -6359479.10 -6359479.23 -6359479.62 -6359479.80 -6359479.96 -6359479.107 -6359479.119 -6359479.154 -6359479.163 -6359479.171 -6359479.179 -6359479.181 -785854260#9 -785854260#8 -785854260#8.9 -785854260#8.47 -785854260#7 -785854260#6 -785854260#6.9 -785854260#6.66 -20625899 -20625899.13 -20625899.430 6344478 6344478.10 -201989358#4 -201989358#4.8 -201989358#4.92 -201989358#4.97 -201989358#3 -201989358#2 -201989358#2.18 -201989358#1 -201989358#1.6 -201989358#1.82 -201989358#0 -195430724#15 -195430724#14 -195430724#14.20 -195430724#13 -195430724#13.78 10585275#1 10585275#1.9 10585275#2 -6357225 -6357225.7 -6332541#0 -6332541#0.83 -164659478#5 -164659478#5.7 6360234#7 528122494 528122494.150 -528122493#2 -528122493#2.7 -528122493#1 -528122493#0 -6362542#4 -6362542#4.10 -6362542#3 -6362542#3.78 -6362542#3.89 -6362542#3.98 -6362542#3.102 -164659477#7 -164659477#7.9 -164659477#7.96 -6344566#3 -6344566#3.8 -6344566#3.11 -6344566#3.20 -6344566#3.32 -6344566#2 -6344566#2.93 164659478#3 164659478#3.7 -6362542#1 -6362542#1.7 -6362542#0 -6362542#0.104 -34811472#12 -34811472#12.8 -34811472#11 -34811472#10 -7783131#4 -7783131#4.7 -7783131#3 164659473#10 164659473#10.107 -7783135#2 -7783135#2.7 -7783135#1 -7783135#0 -7783135#0.101 43256415 43256415.22 416106321#0 416106321#1 416106321#2 6360234#0 6360234#0.7 6360234#1 6360234#2 6360234#3 164659473#12 164659473#12.106 195430724#3 195430724#3.27 195430724#3.158 195430724#4 6369662#0 6369662#0.8 -6382818#1 -6348367#0 -6348367#0.92 -195430724#1 -195430724#1.26 -195430724#0 -698994081#5 -698994081#4 -698994081#3 -698994081#2 -698994081#1 -698994081#0 -698796634#2 -698796634#1 -698796634#1.7 -698796634#1.12 -698796634#0 -541335494#11 -541335494#10 -541335494#10.2 -541335494#10.3 -541335494#9 -541335494#8 -541335494#7 -541335494#6 -541335494#5 -541335494#4 -541335494#4.39 -541335494#3 -541335494#3.6 -541335494#3.15 -541335494#2 -541335494#1 -541335494#0 -698994093#10 -698994093#9 -698994093#8 -698994093#8.7 -698994093#7 -698994093#7.11 -698994093#6 -698994093#5 -698994093#5.50 -698994093#4 -698994093#4.7 -698994093#3 -698994093#2 -698994093#1 -698994093#0 -698994093#0.12 -698994093#0.22 6348015 6348015.7 761330890 761330889#0 761330889#1 761330889#2 761330889#3 761330889#3.83 761330889#4 517593873#2 517593873#2.29 517593873#3 415876778 22278225#0 22278225#0.24 22278225#1 22278225#1.6 22278225#1.16 22278225#1.26 196779231#0 196779231#0.12 196779231#1 196779231#1.17 21452694#0 21452694#0.5 21452694#0.7 21452694#0.9 21452694#0.14 21452694#0.21 21452694#0.27 21452694#0.101 21452694#1 21452694#1.9 21452694#1.14 21452694#1.27 21452694#2 415878130#0 415878130#1 415878131#0 415878131#1 682209186 196779232 196779232.9 415878126 415878126.6 415878137#0 415878137#1 194859188#0 194859188#1 194859188#1.24 415878134#0 415878134#1 202177316#0 202177316#1 202177316#2 415878127 415878127.3 415878136#0 415878136#1 -415876790#1 -415876790#0 -756453993 -559526390 -559526390.35 -202485362#1 -202485362#0 -202485362#0.8 -202485362#0.21 -684030184 -559724189#1 -559724189#1.9 -559724189#0 415884022#0 415884022#1 415884022#1.84 7841698#10 7841698#10.7 7841698#10.11 7841698#10.83 7841698#10.85 -164658213#10 -164658213#10.55 -164658213#9 -164658213#8 24314605#15 24314605#15.92 24314605#15.94 24314605#16 24314605#16.7 24314605#16.11 24314605#16.82 24314605#16.86 -168627975 -168627975.12 -168627975.22 -168627975.32 -168627975.40 22273558 22273558.11 22273558.17 22273558.33 22273558.45 22273558.58 22273558.66 22273558.77 22273558.85 22273558.92 22273558.103 22273558.113 22273558.118 168627917 168627921 168627921.17 190380695#0 190380695#0.6 190380695#0.13 190380695#1 190380695#1.81 190380679#0 190380679#1 190380679#2 190380679#2.88 190380679#2.94 190380679#2.98 6365504#0 6365504#0.12 6365504#0.17 6365504#0.22 6365504#1 6365504#1.47 6365504#2 -6339579#6 -6339579#5 -6339579#5.3 -6339579#4 -6339579#3 -6339579#3.31 -6339579#2 -6339579#2.9 -6339579#1 -6339579#1.60 -6339579#1.62 -6339579#0 -6339579#0.7 -6339579#0.8 288127321#2 288127321#2.19 -430285894 -430285894.21 -430285894.48 -430285894.58 -430285894.70 -430285894.112 -430285894.151 -430285894.190 -22273541#3 -22273541#3.7 -22273541#3.16 -22273541#3.40 -22273541#3.51 -22273541#3.62 -22273541#3.73 -22273541#2 -22273541#2.12 -22273541#2.93 -22273541#2.95 6400722#6 6400722#6.6 6400722#6.9 6400722#7 6400722#8 6400722#9 6400722#10 6400722#10.54 -363370637#7 -363370637#7.92 -363370637#6 -363370637#6.7 -363370637#5 -363370637#4 -363370637#3 -363370637#2 -164658213#5 -164658213#5.7 -164658213#4 -164658213#4.36 -32618074#3 -32618074#2 -32618074#1 -32618074#0 415884014#0 415884014#1 574404431 32618073 32618073.10 32618073.17 906507782 22277730#0 22277730#1 906507783#0 906507783#0.5 906507783#1 7773738#0 7773738#1 7773738#1.2 7773738#2 7773738#2.13 7773738#2.25 7773738#3 166510702#0 166510702#1 166510702#1.13 166510702#2 166510702#2.1 415884025#0 415884025#0.17 415884025#1 287012521#0 287012521#1 287012521#1.1 287012521#1.16 287012521#2 287012521#2.4 287012521#2.16 28594451#0 28594451#0.12 28594451#0.25 28594451#1 28594451#1.81 28594451#2 32618070#0 32618070#1 32618070#1.89 22277729#2 22277729#3 36985596 36985597#0 36985597#1 36985597#2 36985597#2.46 36985597#2.74 -22278227#0 -22278226 -22278226.9 -22278226.55 -22277719#8 -22277719#8.6 -22277719#8.91 -22277719#7 -22277719#7.7 -22277719#7.92 -618189913#0 -618189913#0.6 -618189913#0.24 -618189913#0.90 -618189913#0.190 -618189913#0.204 -618189913#0.219 -618189913#0.231 -694455409#6 -694455409#6.8 -694455409#6.11 -694455409#6.20 -694455409#6.38 -694455409#5 -694455409#5.10 -694455409#5.23 -694455409#5.42 -694455409#5.118 6402116#0 6402116#0.7 6402116#0.10 6402116#0.16 6402116#0.20 6402116#0.54 6402116#0.162 6402116#0.179 6402116#0.194 6402116#0.209 6402116#0.228 6402116#0.245 6402116#0.264 6402116#0.286 6402116#0.307 6402116#0.326 6402116#0.377 6402116#0.411 6402116#0.433 -190579762#17 -190579762#17.47 6341488#16 6341488#16.13 6341488#16.20 6341488#16.48 6341488#16.58 6341488#16.72 6341488#16.96 6341488#16.142 6341488#16.158 6341488#16.170 6341488#16.183 6341488#16.197 6341488#17 6341488#17.52 6341488#17.109 6341488#17.134 6341488#17.148 6341488#17.170 6341488#18 6341488#19 6341488#20 6341488#20.12 6341488#20.21 6341488#20.29 6341488#20.37 6341488#21 6341488#21.18 6341488#21.29 6341488#21.39 6341488#21.77 6341488#21.92 6341488#21.103 6341488#22 6341488#22.9 6341488#22.25 6341488#22.36 6341488#22.42 6341488#22.47 6341488#22.51 6341477#0 6341477#0.24 6341477#0.34 6341477#0.48 6341477#0.69 6341477#0.82 6341477#1 6341477#1.20 6341477#1.35 6341477#1.51 6341477#1.68 6341477#1.85 6341477#2 6341477#2.5 6341477#2.28 6341477#2.51 6375836#6 6375836#6.3 6375836#6.7 6375836#6.14 6375836#6.27 6375836#6.34 6375836#6.41 6375836#6.52 6375836#6.64 6375836#6.86 6375836#6.96 6375836#6.105 6375836#7 6375836#7.8 6375836#7.16 6375836#7.24 6375836#7.49 6375836#7.56 6375836#8 6375836#8.6 6375836#8.13 6375836#8.21 6375836#8.27 6375836#8.34 6375836#8.41 6375836#8.59 6375836#8.69 6375836#8.75 6375836#8.80 -6407092#1 -6407092#1.8 -6407092#1.35 -6407092#1.61 -6407092#1.75 -6407092#1.83 -6407092#1.97 -6407092#0 -6407092#0.6 -6407092#0.70 -6407092#0.87 -6407092#0.98 -6407092#0.108 -6407092#0.122 -6407092#0.126 -6407092#0.136 6355260#0 6355260#1 6355260#2 6355260#2.4 6355260#2.12 6355260#2.19 6355260#2.26 6355260#2.34 6355260#2.42 6355260#2.51 6355260#2.60 6355260#2.69 6355260#2.82 6355260#2.84 6355260#2.94 22374750#0 22374750#0.48 22374750#1 22374750#1.9 22374750#1.20 22374750#2 22374750#2.49 22374750#2.60 22374750#2.69 22374750#2.103 22374750#2.114 22374750#2.125 24785083 24785083.12 24785083.26 6327971#0 6327971#0.13 6327971#1 6327971#1.17 6327971#1.33 6327971#1.48 6327971#1.60 6327971#1.76 6327971#1.92 6327971#1.114 6327971#1.134 6327971#1.145 6327971#1.153 6347181#4 6347181#4.13 6347181#4.24 6347181#4.43 6347181#4.54 6347181#4.66 6347181#4.82 6347181#4.92 6347181#5 6347181#5.13 6347181#5.26 6347181#5.67 6347181#5.76 6347181#6 6347181#6.6 6347181#6.19 6347181#6.31 6347181#6.42 6347181#6.71 6347181#6.100 6347181#6.120 6347181#6.160 6347181#6.176 6347181#6.191 6347181#6.206 6347181#7 6347181#7.10 6347181#7.32 6347181#7.43 6347181#7.52 6347181#7.60 6347181#7.69 6347181#7.77 6347181#7.106 6347181#7.118 6347181#8 6347181#8.51 6347181#8.67 6347181#8.89 6347181#8.96 6347181#8.100 6347181#8.105 6347181#8.114 6347181#8.121 6347181#8.132 6338326#0 6338326#0.10 6338326#0.51 6338326#0.60 6338326#0.66 6338326#1 6338326#1.2 6338326#2 6338326#2.18 6338326#2.34 6338326#2.57 6338326#2.67 6338326#3 6338326#3.9 6338326#3.19 6338326#3.31 6338326#3.66 6338326#3.84 6338326#3.100 6338326#3.113 6338326#3.130 -22374751#0 -22374751#0.7 -22374751#0.17 -22374751#0.21 -22374751#0.46 -22374751#0.85 -22374751#0.99 -22374751#0.114 -22374751#0.120 -22374751#0.127 -6394300#2 -6394300#2.18 -6394300#2.23 -6394300#2.31 -6394300#2.44 6387635#0 6387635#0.6 6387635#0.22 6387635#0.44 6387635#0.91 6387635#0.101 6387635#0.113 6387635#0.125 6387635#0.157 6387635#0.167 6387635#0.177 6387635#1 6387635#1.5 6387635#2 6387635#2.27 6387635#2.40 -196602724 -196602724.18 -196602724.33 -196602724.86 -196602724.95 39464697 39464697.3 39464697.6 39464697.16 39464697.32 39464697.44 39464697.52 -6397228#8 -6397228#8.7 -6397228#8.23 -6397228#8.45 -6397228#7 -6397228#7.16 -6397228#7.33 -6397228#7.43 -6397228#7.54 -6397228#7.64 -6397228#7.93 -6397228#7.103 -6397228#7.113 -6397228#7.120 -6397228#7.127 -6397228#7.140 -6397228#6 -6397228#5 -6397228#5.8 -6397228#5.21 -6397228#5.37 -6397228#5.72 -6397228#5.95 -6397228#3 -6397228#2 -6397228#2.8 -6397228#2.19 -6397228#2.43 -6397228#2.59 -6397228#2.85 -6397228#2.114 -6397228#2.132 -6397228#2.141 -6397228#2.151 -6397228#2.160 -6397228#2.171 -6397228#2.185 -6397228#2.201 -6397228#2.217 -6397228#2.232 -6397228#2.266 -6397228#2.290 -6397228#2.319 -6397228#2.332 -6397228#1 -6397228#0 -6397228#0.19 -6379658#3 -6379658#3.9 -6379658#3.35 -6379658#3.47 -6379658#3.61 -6379658#3.72 -6379658#3.81 -6379658#3.92 -6379658#3.105 -6379658#3.113 -6379658#2 -6379658#1 -6379658#1.28 -6379658#1.37 -6379658#1.49 -6379658#1.62 -6379658#1.75 -6379658#1.92 -6379658#0 -6379658#0.10 -6379658#0.18 -6379658#0.37 -6379658#0.49 -6379658#0.60 -6379658#0.72 -6379658#0.94 -6379658#0.106 -6379658#0.117 -6379658#0.138 -6379658#0.149 -6379658#0.163 -6379658#0.176 6375842#3 6375842#3.9 6375842#3.20 6375842#3.30 6375842#3.40 6375842#3.49 6375842#3.61 6375842#3.72 6375842#4 6375842#4.10 6375842#4.83 6375842#4.95 6375842#4.104 6375842#4.114 6375842#4.140 6375842#4.151 6375842#4.157 -6338076#11 -6338076#11.4 -6338076#11.7 -6338076#11.27 -6338076#11.38 -6338076#11.57 -6338076#11.81 -6338076#10 -6338076#10.12 -6338076#10.39 -6338076#9 6329023#0 6329023#0.7 6329023#0.15 6329023#0.23 6329023#0.38 6329023#0.44 6329023#0.65 6329023#0.76 6329023#0.99 6329023#1 6329023#1.10 6329023#1.18 6329023#1.25 190579799#1 190579799#1.5 190579799#1.15 6359248 6359248.79 -6348426#3 -6348426#3.15 -6348426#2 -6348426#2.32 -6348426#2.44 -6348426#2.56 -6348426#2.76 -6348426#2.97 -6348426#2.106 -6348426#2.115 -11306949#5 -11306949#4 -11306949#4.35 -11306949#2 -11306949#2.13 -11306949#2.27 -11306949#2.40 -11306949#2.50 -11306949#1 -11306949#1.9 -11306949#1.18 -11306949#1.29 -11306949#1.48 -11306949#1.63 -11306949#1.82 -11306949#0 -11306949#0.36 -6335833 -6335833.11 -6340346#1 -6391261 6397410#1 -6395394#1 -6395394#0 6333513#10 6333513#10.86 6333513#10.160 6333513#10.180 6333513#10.193 6333513#10.204 -190579823 -190579823.8 -190579823.22 -190579807 -190579807.8 -190579807.23 -190579807.35 -190579807.49 -190579807.61 -190579774#2 -190579774#2.7 -190579774#2.68 -190579774#2.88 -190579774#2.104 -190579774#1 -190579774#1.18 -190579774#0 -190579774#0.25 -190579811#7 -190579811#6 -190579811#6.1 -190579811#6.14 -190579811#6.31 -190579811#6.52 -190579811#5 -190579811#5.18 -190579811#5.37 -190579811#4 -190579811#4.39 -190579811#4.55 -190579811#4.73 -190579811#4.85 -190579811#3 -190579811#3.11 -190579811#3.21 -190579811#3.30 -190579811#3.43 -190579811#3.56 -190579811#3.66 -6335821 -6335821.7 -6335821.14 -6335821.29 -6335821.40 -6335821.51 -6335821.62 -6335821.182 -6335821.188 6331171#3 6331171#3.27 6331171#4 6331171#4.11 6331171#4.24 6331171#4.36 6331171#4.50 6331171#4.67 6331171#5 6331171#5.7 6331171#5.13 6331171#5.41 6331171#5.57 6331171#5.70 6331171#5.82 6331171#5.95 6331171#5.107 6331171#5.128 6331171#5.144 6331171#5.151 6331171#5.159 -6382510#2 -6382510#2.34 -6382510#2.45 -6382510#2.53 -6382510#2.61 -6382510#2.72 -6382510#2.81 -6382510#2.91 -6382510#2.106 -6382510#2.119 -6382510#2.132 -6382510#1 -6382510#1.19 -6382510#1.26 -6382510#1.36 -6382510#1.44 -6382510#1.51 -6382510#1.61 -6382510#1.72 -6382510#1.92 -6382510#1.105 -6382510#1.114 -6382510#0 -6382510#0.11 -6382510#0.20 -6382510#0.26 -6382510#0.33 -6382510#0.39 -6339085#7 -6339085#7.29 -6339085#7.47 -6339085#7.68 -6339085#7.87 -6339085#7.110 -6339085#6 -6339085#5 -6339085#5.13 -6339085#5.24 -6339085#5.39 6338567#11 6338567#12 -190579811#1 -190579811#1.12 -190579811#1.20 -190579811#1.36 -190579811#1.50 -190579811#1.69 -190579811#1.82 -190579811#1.101 -190579811#1.120 -190579811#1.121 -11043363#4 -11043363#4.9 -11043363#4.16 -11043363#4.34 -11043363#4.41 -6333513#2 -6333513#2.6 -6333513#2.121 -6333513#2.154 -6333513#2.202 -6333513#1 -6333513#1.49 -6333513#1.73 -6333513#1.92 -6333513#1.110 -6333513#1.168 -6333513#1.177 -6333513#1.186 -6333513#1.196 6407689#0 -11043364#4 -11043364#3 -11043364#2 -11043364#1 -11043364#0 -11043364#0.73 -11043364#0.81 -7857575#1 -7857575#1.27 -7857575#1.57 -7857575#1.75 -7857575#1.83 -7857575#1.99 -7857575#1.115 -7857575#1.152 -7857575#1.166 -7857575#1.179 -7857575#1.219 -7857575#1.229 -7857575#1.268 -7857575#1.290 -7857575#1.315 -7857575#1.332 -7857575#1.343 -7857575#1.361 -7857575#1.378 -7857575#1.390 -7857575#1.402 -7857575#1.416 -7857575#1.443 -7857575#1.452 -7857575#1.462"/>
</vehicle>
<vehicle id = "veh4" type= "veh_passenger" depart="7210" >
<route edges =" -316633577#1 -316633577#0 -6340080#2 -6340080#1 -6340080#0 -6340080#0.27 -201989373 -201989373.4 -201989373.9 -201989373.42 678979330 678979330.18 24620199 24620199.9 24620199.11 201989357 201989357.9 201989357.10 201989357.21 201989357.53 -5149904#1 -5149904#1.7 -5149904#0 -5149904#0.2 -34361024#1 -34361024#0 -34361024#0.80 -188703042#5 -188703042#4 -188703042#4.59 6402088#1 6402088#1.8 6402088#1.193 -24620691#3 -6347955 -6347955.7 -188703042#2 6352892 6352892.193 -24620691#1 -6338310#3 -6338310#3.7 -6338310#2 -6338310#2.89 -188703042#0 -188703042#0.9 -188703042#0.21 -188703049 -201989352#2 -201989352#2.8 -201989352#1 -201989352#1.9 -201989352#1.29 -201989352#0 -34361041#1 -34361041#0 -34361041#0.92 -528122494 -528122494.9 -164659477#8 -164659477#8.7 -164659477#7 -164659477#7.9 -164659477#7.96 -164659477#6 -164659477#6.18 -164659477#6.133 -164659477#5 6386342#0 6386342#0.7 6386342#0.9 6386342#1 430147776#0 430147776#1 430147776#1.5 430147774 430147774.5 778470344 778470344.8 -655486441#4 -655486441#4.5 -655486441#3 -655486441#2 -655486441#1 -655486441#0 416105060#0 416105060#1 416105060#1.4 742663481 416105057#0 416105057#0.38 416105057#1 742663482#0 742663482#1 742663482#2 742663482#2.7 742663482#3 742663482#4 574299582#0 574299582#1 574299582#2 574299582#2.15 -6388344 -6388344.12 -164659449#0 -164659449#0.48 164659493#1 164659493#1.1 164659493#1.3 164659493#1.4 164659493#1.6 164659477#0 164659477#0.3 164659477#1 164659477#2 574299582#7 574299582#8 574299582#8.4 574299582#8.23 574299582#9 574299582#9.13 574299582#10 574299582#10.7 574299582#10.56 574299582#11 574299582#12 164659478#0 164659478#1 164659478#2 164659478#2.41 164659478#2.70 164659478#2.127 164659478#3 164659478#3.7 164659478#4 164659478#5 164659478#5.101 -195430724#9 -195430724#8 -195430724#7 -195430724#7.8 -195430724#6 -195430724#6.35 -168627934#1 -168627934#1.8 -6360234#5 -6360234#5.7 -6360234#5.16 -6360234#4 -164659473#11 7783135#3 7783135#3.193 -34811472#12 -34811472#12.8 -34811472#11 -34811472#10 -34811472#9 -34811472#9.6 -34811472#9.49 -34811472#8 -34811472#7 -34811472#6 -202317716#4 -202317716#3 -202317716#3.20 -202317716#3.88 -164659481#5 -164659481#5.12 -164659481#5.14 -164659481#4 -25316538#6 -25316538#6.7 -25316538#6.93 -34811472#3 -34811472#3.7 -34811472#3.66 -34811472#3.122 -34811472#3.194 164659447#1 164659447#1.7 164659447#1.91 164659489#3 164659489#3.1 164659489#3.3 164659489#3.4 164659489#3.6 -164659482 -164659482.3 -164659482.186 164659515#2 164659515#2.1 164659515#2.3 164659515#2.4 164659515#2.6 -24024251#3 -24024251#3.3 -24024251#3.88 -34811472#1 -34811472#1.7 -34811472#1.74 -34811472#1.137 -34811472#0 -34811472#0.51 -34811472#0.57 -910274657 415878178#0 415878178#1 415878178#2 415878178#2.11 415878178#3 415878178#3.22 415878149 930646449#0 930646449#1 -910274656 -210456949#12 -210456949#12.41 -210456949#11 -210456949#10 -32456661#1 -25968342#4 -25968342#4.191 201989365#3 201989365#3.8 201989365#3.27 201989365#3.92 -210456949#8 -210456949#8.10 26379345#10 26379345#10.7 25968350#2 25968350#2.9 25968350#2.151 25968350#3 201989365#6 201989365#7 201989365#8 201989365#8.4 201989365#8.27 6384487#13 6384487#13.10 6384487#13.12 6384487#13.120 6384487#13.192 6384487#13.194 6384487#14 6384487#14.6 6384487#14.9 6384487#15 6384487#16 6384487#17 6384487#17.26 6384487#17.33 6384487#17.39 6384487#18 1000718782#3 6351923#0 6351923#0.6 6351923#0.22 6351923#1 165864142#0 165864142#1 165864142#2 165864142#3 -25968351#7 -25968351#6 -25968351#6.57 -25968351#5 -25968351#5.187 -25968351#5.190 -25968351#4 -25968351#4.10 -25968351#4.12 -25968351#3 -25968351#2 -25968351#1 -25968351#1.6 -25968351#1.77 -25968351#1.134 -25968351#0 -25968351#0.7 -25968351#0.72 -25968351#0.129 -25968351#0.139 -25968351#0.148 -25968351#0.155 -25968351#0.187 25968357#3 25968357#3.1 25968357#3.3 25968357#3.4 25968357#3.6 -25968345#3 -25968345#3.3 -25968345#3.87 6332538#3 6332538#3.8 6332538#3.47 6332538#3.54 6332538#3.59 6332538#3.64 6332538#3.188 6332538#4 6332538#4.7 6332538#4.194 -26379345#12 -26379345#12.92 -6384487#11 -6384487#11.7 -6384487#10 -6384487#9 -6384487#9.22 -25968337#11 -25968337#10 -25968337#9 -25968337#8 25968342#2 25968342#2.118 25968342#2.125 25968342#2.133 25968342#2.141 -26379345#8 -26379345#8.93 -26379345#7 -26379345#7.22 -26379345#7.36 -26379345#7.76 -26379345#7.91 -26379345#7.92 -26379345#6 -26379345#6.8 -26379345#5 -26379345#4 -26379345#4.94 423105092#1 423105092#1.91 541351345 541351345.8 27877609#0 27877609#1 423105088#0 423105088#1 541351341 541351341.163 -233699763#2 -233699763#2.7 -233699763#2.9 -233699763#2.71 -233699763#2.92 -233699763#1 -233699763#1.11 -233699763#0 6403126#0 6403126#1 6403126#2 6403126#3 6403126#4 6403126#5 6403126#6 415878172#0 415878172#1 415878172#2 415878172#3 415878139#0 415878139#0.13 415878139#1 -910274628#0 -682085478#1 -682085478#0 -541061220#4 -541061220#3 -541061220#2 -541061220#1 -541061220#0 -541061220#0.7 -541061780#0 -541061780#0.6 -27767100#1 -27767100#0 -296976966#1 -296976966#0 -574399185 -574399185.38 -617930717 -617930717.6 -679424764#2 195430727#0 195430727#1 195430727#1.7 195430727#1.37 -196599890#1 -196599890#0 -34815522#2 -34815522#1 -34815522#1.32 -34815522#1.69 -34815522#0 -233700520#6 -233700520#5 -233700520#4 -233700520#3 -233700520#2 -233700520#2.25 -43049945#5 -43049945#5.8 -43049945#5.72 -43049945#4 -43049945#3 -43049945#2 -43049945#1 -43049945#0 -43049945#0.18 -43049945#0.37 -43049945#0.39 -415876799#1 -415876799#1.7 -415876799#0 -43049946#1 -43049946#0 -195595372#2 -195595372#1 -195595372#0 -415876803#2 -415876803#1 -415876803#0 415876796#0 415876796#1 415876796#2 296976973#0 296976973#0.2 296976973#0.6 296976973#1 296976973#1.128 296976973#2 -541350929#1 -541350929#0 -541350929#0.84 -164659430#3 -164659430#3.8 -164659430#3.92 -164659430#2 -164659430#2.8 6404288#4 6404288#4.7 6404288#4.188 6404288#4.193 6404288#4.196 -164659440#2 -164659440#2.3 -164659440#2.7 -164659440#2.12 -164659440#1 6373282#1 6373282#1.8 999534620#27 999534620#27.99 25968337#6 25968337#6.9 25968337#6.10 24028181#5 24028181#5.186 -190017518#0 -190017518#0.7 -190017518#0.88 -190017519 -190017519.7 25968341 25968341.18 25968341.56 -999534620#24 -999534620#24.3 -541349569 -541349569.193 -6356133#2 -6356133#2.8 -6356133#2.193 -6356133#1 -6356133#1.9 -6356133#0 -7773729#7 -7773729#6 415870533#6 415870533#7 415870533#7.17 415870533#7.70 415870533#7.162 415870533#7.211 415870533#8 415870533#8.6 415870533#9 415870525#0 415870525#0.13 415870525#1 415870525#2 22370937#0 22370937#1 22370937#2 22370937#3 22370937#3.6 22370937#4 22370937#4.6 22370937#5 22370937#5.11 22370937#6 22370937#7 415870519#0 415870519#1 415870531#0 415870531#1 415870531#1.26 415870531#2 22370936#0 22370936#0.7 22370936#0.14 22370936#1 22370936#1.74 30832687#5 7841698#2 7841698#2.8 7841698#3 -30909407#4 22370936#4 22370936#4.8 22370936#5 22370936#5.95 22370936#5.97 22370936#6 22370936#6.7 22370936#6.13 22370936#6.194 22370936#6.195 -23089173#2 -23089173#2.6 -23089173#2.28 -23089173#2.39 -23089173#2.51 -23089173#2.57 -23089173#2.90 -23089173#2.93 -24314605#6 -24314605#6.6 -6388365#5 -6388365#5.6 -6388365#5.9 -6388365#5.194 -6388365#5.195 -6388365#4 -6388365#4.6 -6388365#4.8 -6388365#3 -6388365#3.45 -6388365#3.47 6398141#5 6398141#5.6 6398141#5.93 -22277720#3 -22277720#3.7 -22277720#3.194 -32456218#2 -32456218#2.7 -32456218#2.93 -6388365#1 -6388365#1.7 -6388365#1.193 -6388365#0 -6388365#0.7 -6388365#0.178 -6388365#0.190 -6388365#0.204 -6388365#0.217 -6356111#0 -6356111#0.89 32866333 32866333.24 32866333.46 26723188#0 26723188#0.81 26723188#0.104 26723188#1 26723188#1.7 26723188#1.30 26723188#1.171 26723188#2 32866188#0 32866188#1 32866188#1.15 32866188#1.175 32866188#1.186 -6398141#3 -6398141#3.7 -6398141#3.10 -6398141#3.93 24164451#4 24164451#4.7 24164451#4.9 24164451#4.192 24164451#4.194 24164451#5 24164451#5.8 24164451#5.10 24164451#5.192 -24314605#3 -24314605#2 -30909407#2 -422792872#3 -422792872#3.7 6333700#4 6333700#4.8 6333700#4.94 -24314605#0 -24314605#0.90 -24314605#0.93 -6346111#5 -6346111#5.2 -6346111#5.5 -6346111#5.6 -422792872#1 -422792872#1.191 -422792872#0 -422792872#0.10 -422792872#0.179 415870529#2 415803769#0 415803769#1 195433879#0 195433879#1 195433879#1.15 195433879#1.152 195433879#1.162 22370935#0 22370935#0.12 22370935#0.43 22370935#0.49 22370935#1 164658838#0 164658838#1 426767275 426767274 168627943#0 168627943#1 168627943#2 6383959 6383959.96 -166409141#1 -166409141#1.5 -166409141#1.13 -166409141#1.111 -166409141#0 -166409141#0.11 -422929504 -422929504.11 -422929505#1 6339229#1 195433868#2 195433868#2.85 -30832687#1 -30832687#1.7 -30832687#1.9 6336003#0 6336003#0.14 6336003#1 6336003#1.14 6336003#1.28 6336003#1.78 6346111#3 6346111#3.91 6346111#3.92 195433868#5 195433868#5.7 195433868#6 195433868#6.6 -7840628#2 -7840628#2.8 -7840628#1 -7840628#1.193 168627943#7 168627943#7.7 -24164451#1 -24164451#1.7 -24164451#1.193 -24164451#0 24164453 24164453.10 24164453.23 32456680 32456680.2 460683944 234074078#0 234074078#1 -460683946#1 -460683946#0 -415884036 -415884036.2 -417526452 -417526452.5 -417526452.27 -417526430 -196750859#2 -196750859#1 -196750859#1.40 6378198#0 6378198#0.13 6378198#0.178 6378198#0.195 6378198#1 6378198#2 6378198#3 6378198#3.3 6378198#4 6378198#4.3 6408035 6408035.10 697544432 697544432.9 415884026#0 415884026#1 415884026#1.1 30832954#0 541337829 541337829.12 541337829.13 541337829.20 541337829.28 6375690 6375690.13 6375690.27 6375690.50 6375690.73 6375690.94 6375690.114 6375690.134 6375690.161 -541337642 -541337642.81 -22278227#0 -22278226 -22278226.9 -22278226.55 -6391580#1 -6391580#1.7 -6391580#1.137 -6391580#1.151 -6391580#1.169 -6391580#1.181 -6391580#0 -6391580#0.16 -6391580#0.30 -6391580#0.45 -6391580#0.58 -6391580#0.69 -6391580#0.71 187827704#1 187827704#1.7 187827704#1.56 187827704#1.70 187827704#1.82 187827704#1.93 187827704#1.174 187827704#1.180 187827704#1.185 187827704#1.187 -541338171#0 -6332167#1 -6332167#1.11 -6332167#1.29 -6332167#1.51 -6332167#1.66 -6332167#1.79 -6332167#1.100 -6332167#1.119 -6332167#1.134 -6332167#0 -6332167#0.10 6386692#3 6386692#3.3 6386692#3.6 6386692#3.9 6386692#4 6386692#4.3 6386692#4.6 22017057 22017057.9 22017057.13 22017057.27 -6340364#1 -6340364#1.12 -6340364#1.14 -6340364#1.25 -6340364#1.37 -6340364#1.50 -6340364#1.69 -6340364#1.79 -6340364#1.89 -6340364#1.102 -6340364#1.126 -6340364#0 -187827704#3 -187827704#3.10 -187827704#3.63 -187827704#3.78 -187827704#3.91 -187827704#3.102 -187827704#3.163 -187827704#3.175 -187827704#3.182 6338567#1 6338567#1.107 -6372673#0 -6372673#0.7 -6372673#0.15 -6372673#0.28 -6372673#0.42 -6372673#0.56 -6372673#0.76 -6372673#0.85 -6372673#0.95 -6372673#0.109 -6372673#0.123 -436204253#0 -436204253#0.23 -436204258 -436204258.24 -436204258.31 -436204258.38 -436204258.45 -436204258.52 -436204258.59 -436204257#1 -436204257#1.24 -436204257#1.61 -6374520#5 -6374520#5.44 -6374520#5.63 -6374520#5.83 -6374520#5.96 -6374520#5.105 -6374520#5.115 -6374520#5.137 -6374520#5.239 -6374520#5.253 -6374520#5.266 -6374520#5.279 -6374520#5.291 -6374520#5.307 -6374520#5.326 -6374520#4 -6374520#4.17 -6374520#4.36 6358815#0 6358815#0.15 6358815#0.24 6358815#0.40 6358815#0.45 6358815#0.65 6358815#0.71 6358815#0.77 6358815#0.95 6358815#0.100 6358815#1 6358815#1.12 6358815#1.27 6358815#1.43 6358815#1.56 6358815#1.69 6358815#1.82 6358815#1.118 6358815#1.128 6358815#1.136 6358815#1.143 6358815#1.151 6358815#1.159 6358815#1.173 6358815#1.183 193256686#17 193256686#17.12 193256686#17.22 193256686#17.56 193256686#17.72 193256686#18 193256686#18.11 193256686#18.14 193256686#18.23 193256686#18.36 193256686#18.49 193256686#18.64 193256686#18.77 193256686#18.90 193256686#18.121 193256686#18.152 193256686#18.172 193256686#18.180 193256686#18.196 193256686#18.203 6338567#5 6338567#5.8 -6341488#12 -6341488#12.15 -6341488#12.26 -6341488#12.42 -6341488#12.55 -6341488#12.74 6336095#1 6336095#1.21 6336095#1.30 6336095#1.42 6336095#1.55 6336095#1.84 6338567#7 6338567#7.90 6338567#8 6338567#8.11 6343160 6343160.7 6343160.14 6343160.22 6343160.28 6343160.36 6343160.45 6343160.53 6343160.61 6343160.74 6343160.81 6343160.91 6343160.98 6343160.106 6343160.115 6343160.123 6343160.160 6343160.170 6343160.177 6343160.185 6343160.191 6343160.217 6339085#4 6339085#4.9 6339085#4.19 6339085#4.53 6338567#11 6331171#1 6331171#1.19 6331171#1.40 6331171#1.58 6331171#1.74 6331171#2 6331171#2.20 6331171#2.38 6331171#2.59 6335821 6335821.6 6335821.12 6335821.132 6335821.143 6335821.154 6335821.165 6335821.179 6335821.187 -190579811#2 -190579811#2.12 -190579811#2.16 -190579811#2.27 -190579811#2.39 -190579811#2.49 -190579811#2.50 30156401#0 -6333513#3 -6333513#3.137 -11043363#3 -11043363#3.7 -11043363#2 -11043363#1 -11043363#0 7857575#0 7857575#0.10 7857575#0.24 7857575#0.39 7857575#0.57 7857575#0.75 7857575#0.88 7857575#0.126 7857575#0.144 7857575#0.146 7857575#0.162 7857575#0.184 7857575#0.212 7857575#0.218 7857575#0.224 7857575#0.229 7857575#0.241 7857575#0.275 7857575#0.303 7857575#0.315 7857575#0.324 7857575#0.326 7857575#0.339 7857575#0.350 7857575#0.357 7857575#0.360 7857575#0.410 7857575#1 7857575#1.42 7857575#1.66 7857575#1.85"/>
</vehicle>
<vehicle id = "veh5" type= "veh_passenger" depart="7210" >
<route edges =" 797309093 797309091#0 797309091#0.10 797309091#1 797309091#1.7 797309091#2 797309091#2.10 797309091#2.15 797309091#3 377635148 377635148.3 377635148.5 377635149#0 377635149#0.19 377635149#0.28 377635149#0.40 377635149#0.54 377635149#1 377635149#1.77 -6348380#1 -6348380#0 -6348380#0.166 6361214 -10389874 437142999#0 437142999#1 -437143007#2 -437143007#1 -437143007#1.3 -437143007#1.47 -437143007#1.70 -437143007#0 -785854260#6 -785854260#6.9 -785854260#6.66 -20625899 -20625899.13 -20625899.430 6344478 6344478.10 201989358#5 201989358#5.9 201989358#5.78 201989358#5.98 -37963097#2 -37963097#2.8 -759762166 759762167 759762167.1 -34361042 -34361042.8 -34361042.97 34361041#0 34361041#0.7 34361041#1 -195430724#15 -195430724#14 -195430724#14.20 -195430724#13 -195430724#13.78 10585275#1 10585275#1.9 10585275#2 10585275#3 10585275#3.7 10585275#3.83 -7795936#1 -7795936#1.3 -7795936#0 -7795936#0.137 -24620185#2 -24620185#2.7 -24620185#2.83 -24620185#1 -24620185#1.6 -24620185#1.74 6318448#1 6318448#1.7 6318448#1.198 195430724#7 195430724#7.74 195430724#8 195430724#9 -164659478#5 -164659478#5.7 -164659478#4 -6362542#1 -6362542#1.7 -6362542#0 -6362542#0.104 -7783135#3 -7783135#3.7 164659473#11 164659473#12 164659473#12.106 -195430724#2 -195430724#2.27 -195430724#1 -195430724#1.26 -195430724#0 -698994081#5 -698994081#4 -698994081#3 -698994081#2 -698994081#1 -698994081#0 -698796634#2 -698796634#1 -698796634#1.7 -698796634#1.12 -698796634#0 -541335494#11 -541335494#10 -541335494#10.2 -541335494#10.3 -541335494#9 -541335494#8 -541335494#7 -541335494#6 -541335494#5 -541335494#4 -541335494#4.39 -541335494#3 -541335494#3.6 -541335494#3.15 -541335494#2 -541335494#1 -541335494#0 -698994093#10 -698994093#9 -698994093#8 -698994093#8.7 -698994093#7 -698994093#7.11 -698994093#6 -698994093#5 -698994093#5.50 196779223#4 196779223#4.7 196779223#4.89 196779223#5 541334900#4 541334900#5 541334900#6 698994092#3 698994092#4 698994092#4.84 6348015 6348015.7 761330890 761330889#0 761330889#1 761330889#2 761330889#3 761330889#3.83 761330889#4 517593873#2 517593873#2.29 517593873#3 415876778 22278225#0 22278225#0.24 22278225#1 22278225#1.6 22278225#1.16 22278225#1.26 196779231#0 196779231#0.12 196779231#1 196779231#1.17 21452694#0 21452694#0.5 21452694#0.7 21452694#0.9 21452694#0.14 21452694#0.21 21452694#0.27 21452694#0.101 21452694#1 21452694#1.9 21452694#1.14 21452694#1.27 21452694#2 415878130#0 415878130#1 415878131#0 415878131#1 682209186 196779232 196779232.9 415878126 415878126.6 415878137#0 415878137#1 22372598#1 22372598#2 22372598#3 -6391592#1 -6391592#1.7 -6391592#0 -6391592#0.14 781008559#0 781008559#1 781008559#2 781008559#3 202177316#0 202177316#1 202177316#2 415878127 415878127.3 415878136#0 415878136#1 415876789 195433872 958717203 903957347 903957347.10 903957346#0 903957346#0.5 903957346#1 903957346#1.14 415876791 415876791.6 415876791.11 415876791.19 415876791.38 6365504#0 6365504#0.12 6365504#0.17 6365504#0.22 6365504#1 6365504#1.47 6365504#2 -6339579#6 -6339579#5 -6339579#5.3 -6339579#4 -6339579#3 -6339579#3.31 22275208#1 22275208#1.8 22275208#2 22275208#2.64 37060496#0 37060496#0.7 37060496#1 37060496#2 188283054 188283054.9 -23873746#1 -23873746#0 -23873746#0.3 -23873746#0.43 -22374749 -22374749.8 -22374749.18 -22374749.27 -22374749.37 -22374749.48 -22374749.58 -430174919#1 -430174919#1.4 -430174919#1.15 -430174919#0 -6327971#4 -6327971#4.18 -6327971#4.25 -6327971#4.32 -6327971#4.45 -6327971#4.54 -6327971#3 -6327971#3.32 -6327971#2 -6327971#2.14 -6327971#2.24 -6327971#2.34 -6327971#2.49 -6347181#3 -6347181#3.11 -6347181#3.22 -6347181#3.43 -6347181#3.51 -6347181#3.63 -6347181#3.84 -6347181#2 -6347181#2.17 -6347181#2.24 -6347181#2.30 -6347181#2.35 -6347181#1 -6347181#1.6 -6347181#1.88 -6347181#0 -6347181#0.3 836650989 836650989.16 836650989.43 836650989.53 6407485 6407485.9 6407485.18 6407485.28 6407485.90 6407485.96 6407485.103 6407485.110 430174924#0 430174924#0.7 430174924#0.15 430174924#0.76 -288127321#6 -288127321#6.8 -288127321#5 -288127321#4 -288127321#3 -288127321#2 -288127321#2.58 6339579#0 6339579#0.85 6339579#0.86 -6341088#0 -6341088#0.7 -6341088#0.123 -7990899#1 -7990899#0 -7990899#0.77 -363370637#7 -363370637#7.92 -363370637#6 -363370637#6.7 -363370637#5 -363370637#4 21452801#9 21452801#10 21452801#10.1 21452801#10.21 21452801#11 21452801#12 21452801#12.12 21452801#12.41 -24314605#15 -24314605#15.6 -24314605#15.8 -164658213#7 -164658213#6 -164658213#6.156 -164658213#5 -164658213#5.7 -164658213#4 -164658213#4.36 -32618074#3 -32618074#2 -32618074#1 -32618074#0 415884014#0 415884014#1 574404431 32618073 32618073.10 32618073.17 6339825 6339825.19 6339825.33 166510702#0 166510702#1 166510702#1.13 166510702#2 166510702#2.1 415884025#0 415884025#0.17 415884025#1 32456227#3 32456227#4 32456227#5 32456227#6 32456227#7 32456227#8 32618072#0 32618072#1 32618072#2 32618072#2.44 164658212#0 164658212#0.7 164658212#1 193256683#0 193256683#1 193256683#1.83 -618189913#5 -618189913#5.7 -618189913#5.17 -618189913#5.34 -190380683#1 -190380683#1.11 -190380683#1.27 -190380683#1.44 -190380683#0 -190380683#0.19 -190380683#0.42 -190380685#1 -190380685#1.9 -190380685#1.20 -190380685#1.38 -190380685#1.61 -190380685#1.77 -190380685#1.84 -190380685#0 -190380685#0.11 -190380685#0.22 -190380685#0.34 -190380685#0.60 -6362159 -618189913#1 -618189913#1.76 -618189913#1.91 -618189913#0 -618189913#0.6 -618189913#0.24 -618189913#0.90 -618189913#0.190 -618189913#0.204 -618189913#0.219 -618189913#0.231 -574377108 -574377108.11 -574377108.13 -574377108.26 -574377108.70 -189843769 -189843769.9 -189843769.16 -189843769.21 -189843769.40 -189843769.53 -189843769.65 -189843769.81 -189843769.92 -189843769.102 -189843769.112 -189843769.128 -189843769.138 -189843769.147 -189843769.158 -189843769.175 -189843769.191 -189843769.207 -189843769.220 -189843769.234 -189843769.257 -189843769.278 -189843769.293 -189843769.305 -189843769.317 -189843769.329 -189843769.366 -189843768 -189843768.9 -6372673#1 -6372673#1.8 -6372673#1.20 6338567#2 6338567#3 6338567#3.80 11154779#9 11154779#9.12 11154779#9.34 11154779#9.73 11154779#9.89 11154779#9.122 11154779#9.137 11154779#9.139 6368567 6368567.8 6368567.16 6368567.22 6368567.89 6368567.99 6368567.108 6368567.118 6368567.132 6368567.141 6368567.149 6368567.159 6341488#15 6341488#15.6 6341488#15.17 6341488#15.68 6341488#15.84 6341488#15.97 6341488#15.111 6341488#15.123 6341488#15.136 6341488#15.150 6341488#15.162 6341488#15.174 6341488#15.185 6341488#15.198 6341488#15.211 6341488#15.224 6341488#15.237 190579762#17 190579762#17.15 6402116#1 6402116#1.46 6402116#1.57 6402116#1.69 6402116#1.82 6402116#1.97 6402116#1.112 6402116#1.123 6402116#1.135 6402116#1.161 6402116#1.185 6402116#2 6402116#3 6402116#3.18 6402116#3.33 6402116#3.42 6402116#3.53 6402116#3.68 6402116#3.75 6402116#3.94 6402116#4 6402116#5 6402116#5.14 6402116#5.25 6402116#5.32 6402116#5.50 6402116#5.66 6402116#5.85 6402116#6 6402116#6.11 6402116#6.20 6402116#6.33 6402116#6.43 6402116#6.52 6402116#6.63 6402116#6.79 6402116#7 6402116#7.47 6402116#7.61 6402116#7.73 6402116#8 6402116#8.12 6402116#8.23 6402116#8.37 6402116#8.51 6402116#8.85 6375836#4 6375836#4.22 6375836#4.57 6375836#4.73 6375836#4.90 6375836#5 6375836#5.30 6375836#5.38 6375836#5.46 6375836#5.53 6375836#5.81 6375836#5.93 6375836#5.106 6375836#5.131 6375836#5.148 6375836#5.164 6375836#5.175 6375836#6 6375836#6.3 6375836#6.7 6375836#6.14 6375836#6.27 6375836#6.34 6375836#6.41 6375836#6.52 6375836#6.64 6375836#6.86 6375836#6.96 6375836#6.105 6375836#7 6375836#7.8 6375836#7.16 6375836#7.24 6375836#7.49 6375836#7.56 6375836#8 6375836#8.6 6375836#8.13 6375836#8.21 6375836#8.27 6375836#8.34 6375836#8.41 6375836#8.59 6375836#8.69 6375836#8.75 6375836#8.80 6375842#0 6375842#0.6 6375842#0.13 6375842#0.20 6375842#0.32 6375842#0.40 6375842#0.57 6375842#0.68 6375842#0.75 6375842#0.82 6375842#0.107 6375842#1 6375842#1.6 6375842#1.19 6375842#1.32 6375842#1.37 6375842#2 6375842#2.4 6375842#2.9 6375842#2.13 6375842#2.51 6375842#2.72 6375842#2.92 6375842#2.102 6375842#2.110 6375842#3 6375842#3.9 6375842#3.20 6375842#3.30 6375842#3.40 6375842#3.49 6375842#3.61 6375842#3.72 6375842#4 6375842#4.10 6375842#4.83 6375842#4.95 6375842#4.104 6375842#4.114 6375842#4.140 6375842#4.151 6375842#4.157 -6338076#11 -6338076#11.4 -6338076#11.7 -6338076#11.27 -6338076#11.38 -6338076#11.57 -6338076#11.81 -6338076#10 -6338076#10.12 -6338076#10.39 -6338076#9 -6338076#8 -6338076#8.23 -6338076#8.41 -6338076#8.82 -6338076#7 -6338076#6 -6338076#6.14 -6338076#6.32 -6338076#6.45 -6338076#6.110 -6338076#5 -6338076#5.11 -6338076#4 -6338076#4.4 -6338076#4.13 -6338076#4.60 -6338076#4.67 -6338076#4.75 -6338076#4.85 -6338076#4.120 -6338076#4.141 -6338076#4.156 6395397 6395397.12 6395397.36 6395397.47 6395397.63 6395397.112 6395397.121 6395397.132 6395397.141 -190579774#1 -190579774#1.18 -190579774#0 -190579774#0.25 -190579811#7 -190579811#6 -190579811#6.1 -190579811#6.14 -190579811#6.31 -190579811#6.52 -190579811#5 -190579811#5.18 -190579811#5.37 -190579811#4 -190579811#4.39 -190579811#4.55 -190579811#4.73 -190579811#4.85 -190579811#3 -190579811#3.11 -190579811#3.21 -190579811#3.30 -190579811#3.43 -190579811#3.56 -190579811#3.66 -6335821 -6335821.7 -6335821.14 -6335821.29 -6335821.40 -6335821.51 -6335821.62 -6335821.182 -6335821.188 6331171#3 6331171#3.27 6331171#4 6331171#4.11 6331171#4.24 6331171#4.36 6331171#4.50 6331171#4.67 -6338076#0 -6338076#0.28 -6338076#0.35 -6338076#0.44 -6338076#0.51 -6338076#0.59 -6338076#0.66 -6338076#0.81 -6338076#0.90 -6338076#0.96 -6338076#0.120 -6338076#0.129 -6338076#0.138 -6382510#0 -6382510#0.11 -6382510#0.20 -6382510#0.26 -6382510#0.33 -6382510#0.39 -6339085#7 -6339085#7.29 -6339085#7.47 -6339085#7.68 -6339085#7.87 -6339085#7.110 -6339085#6 -6339085#5 -6339085#5.13 -6339085#5.24 -6339085#5.39 -6339085#4 -6339085#4.58 -6339085#4.92 -6339085#4.103 -6339085#3 -6339085#3.11 -6339085#3.19 -6339085#3.40 -6339085#3.47 -6339085#3.56 -6339085#3.68 -6339085#3.81 -6339085#3.95 -6339085#3.107 -6339085#3.120 -6369249 -6369249.4 -6369249.9 -6369249.43 -6369249.50 -6369249.57 -6369249.64 -6369249.70 -6369249.135 -6369249.142 -6369249.149 -6369249.163 -6369249.174 -190579762#5 -190579762#5.9 -190579762#5.19 -190579762#5.29 -190579762#5.41 -190579762#5.62 -190579762#5.74 -190579762#5.86 -190579762#4 -190579762#3 -190579762#3.10 -190579762#3.21 -190579762#3.33 -190579762#2 -190579762#2.16 -190579762#2.48 -190579762#2.68 -190579762#2.85 -190579762#2.102 -190579762#2.117 -190579762#2.139 -190579762#2.141 -190579762#1 -190579762#1.18 -190579762#1.34 -190579762#1.48 -190579762#1.61 -190579762#1.72 -190579762#0 -190579762#0.9 -190579762#0.20 -190579762#0.30 -190579762#0.41 -190579762#0.48 -190579762#0.50 -6400759 -6400759.10 -6400759.12 190579817#0 190579817#0.11 190579817#1 190579817#1.5 190579817#1.14 190579817#1.25 190579817#1.37 190579817#1.55 190579817#1.68 6333513#0 6333513#0.10 6333513#0.40 6333513#0.51 6333513#0.62 6333513#0.73 6407689#0 -11043364#4 6344393 6344393.33 6344393.38 6344393.42 6344393.48 -11043364#2 -11043364#1 -11043364#0 -11043364#0.73 -11043364#0.81 -7857575#1 -7857575#1.27 -7857575#1.57 -7857575#1.75 -7857575#1.83 -7857575#1.99 -7857575#1.115 -7857575#1.152 -7857575#1.166 -7857575#1.179 -7857575#1.219 -7857575#1.229 -7857575#1.268 -7857575#1.290 -7857575#1.315 -7857575#1.332 -7857575#1.343 -7857575#1.361 -7857575#1.378 -7857575#1.390 -7857575#1.402 -7857575#1.416 -7857575#1.443 -7857575#1.452 -7857575#1.462"/>
</vehicle>
<vehicle id = "veh6" type= "veh_passenger" depart="10815" >
[...]
</vehicle>
<vehicle id = "veh12" type= "veh_passenger" depart="21630" >
<route edges =" 797309093 797309091#0 797309091#0.10 797309091#1 797309091#1.7 797309091#2 797309091#2.10 797309091#2.15 797309091#3 377635148 377635148.3 377635148.5 377635149#0 377635149#0.19 377635149#0.28 377635149#0.40 377635149#0.54 -437142996 -437142996.8 -437142997 -437142997.7 -437142997.19 -437142997.28 -437142995 -6336839 -6336839.8 -6336839.22 -6336839.37 -6336839.47 -6336839.56 -6336839.71 -6336843 -6336843.11 -6336843.20 -6336843.52 785854260#5 -20625899 -20625899.13 -20625899.430 6344478 6344478.10 -201989358#4 -201989358#4.8 -201989358#4.92 -201989358#4.97 25340020 25340020.6 25340020.17 24620689#0 24620689#0.6 24620689#1 24620689#1.9 -201989358#2 -201989358#2.18 -201989358#1 -201989358#1.6 -201989358#1.82 -201989358#0 -195430724#15 -195430724#14 -195430724#14.20 -195430724#13 -195430724#13.78 10585275#1 10585275#1.9 10585275#2 10585275#3 10585275#3.7 10585275#3.83 -7795936#1 -7795936#1.3 -7795936#0 -7795936#0.137 -6332541#1 -6332541#0 -6332541#0.83 -164659478#5 -164659478#5.7 6360234#7 -164659477#8 -164659477#8.7 -164659477#7 -164659477#7.9 -164659477#7.96 -164659477#6 -164659477#6.18 -164659477#6.133 -164659477#5 -164659477#4 -164659477#3 -574299582#6 -574299582#5 -574299582#4 -574299582#3 -574299582#3.1 -6388344 -6388344.12 -164659449#0 -164659449#0.48 164659493#1 164659493#1.1 164659493#1.3 164659493#1.4 164659493#1.6 164659493#2 164659493#2.1 164659493#2.3 164659493#2.5 164659493#2.7 -164659450#1 -164659450#1.3 -164659450#1.87 -23226443#1 -23226443#1.8 -23226443#1.192 164659462#1 164659462#1.7 164659462#1.92 164659509#3 164659509#3.1 164659509#3.3 164659509#3.4 164659509#3.6 -25315987 -25315987.3 25315985 25315985.7 25315985.12 -819364512#6 6401499 25316479 25316479.6 202317700#3 202317700#3.60 25315896#0 25315896#0.27 25315896#1 25315896#2 -6344484#1 -6344484#1.176 -421385008#0 -421385008#0.7 -421385008#0.69 -421385008#0.71 -10723756#5 -10723756#5.9 -10723756#4 -10723756#4.68 -10723756#4.71 -6372435#3 -6372435#3.8 -6372435#2 -6372435#1 6342542#2 6342542#2.166 421385008#3 421385008#3.7 421385008#4 421385008#4.45 421385008#5 421385008#5.7 421385008#6 417696932#0 417696932#0.10 417696932#1 416111321#0 416111321#1 416111321#1.4 518489610#0 518489610#1 518489610#2 518489610#3 518489610#4 515885395#0 515885395#0.24 -819364512#3 -819364512#3.8 6383013 6383013.149 -778470340#2 -778470340#1 -778470340#0 -778470340#0.10 -778470340#0.19 -416102058 -416102058.7 -202317703#1 -202317703#1.15 -202317703#0 416111293#0 416111293#1 202317699#0 202317699#0.17 202317699#1 202317699#2 202317699#3 202317699#4 202317699#5 202317699#6 202317699#7 202317699#8 202317699#9 202317699#10 202317699#10.21 202317699#11 202317699#12 1000720853#0 1000720853#1 1000720853#1.19 1000720853#2 1000720853#3 1000720853#4 1000720853#5 1000720853#6 1000720853#7 1000720853#7.136 164659511#4 164659511#0 164659511#0.1 164659511#0.3 164659511#0.4 164659511#1 164659511#1.1 164659511#1.2 164659511#1.4 164659511#1.5 164659479 164659479.3 164659479.186 164659505#4 164659505#0 164659505#0.1 164659505#0.2 164659505#0.4 164659505#1 164659505#1.1 164659505#1.3 164659505#1.4 164659505#1.6 164659505#2 164659505#2.1 164659505#2.2 164659505#2.4 164659505#2.5 -164659446 -164659446.3 -164659446.87 164659489#1 164659489#1.1 164659489#1.3 164659489#1.4 164659489#1.6 164659481#0 164659481#0.3 164659481#1 164659481#2 164659481#3 -25316538#6 -25316538#6.7 -25316538#6.93 34811472#4 34811472#4.7 34811472#5 -202317716#4 -202317716#3 -202317716#3.20 -202317716#3.88 -202317716#2 -202317716#1 -202317716#1.25 -202317716#1.51 -202317716#0 164659478#0 164659478#1 164659478#2 164659478#2.41 164659478#2.70 164659478#2.127 164659478#3 164659478#3.7 -6362542#1 -6362542#1.7 -6362542#0 -6362542#0.104 -7783135#3 -7783135#3.7 -164659473#10 -164659473#10.7 -164659473#9 -164659473#8 -164659473#8.12 -164659473#7 -164659473#7.13 -164659473#6 -164659473#6.16 202317716#13 202317716#13.7 202317716#14 742663483#0 742663483#1 742663483#1.35 742663483#1.56 742663483#1.77 742663483#1.84 742663483#2 415878804#0 415878804#1 415878803#0 415878803#1 541334786#0 541334786#1 541334786#1.21 541334786#2 -698994093#10 -698994093#9 -698994093#8 -698994093#8.7 -698994093#7 -698994093#7.11 -698994093#6 -698994093#5 -698994093#5.50 -698994093#4 -698994093#4.7 -698994093#3 -698994093#2 -698994093#1 -698994093#0 -698994093#0.12 -698994093#0.22 6348015 6348015.7 761330890 761330889#0 761330889#1 761330889#2 761330889#3 761330889#3.83 761330889#4 517593873#2 517593873#2.29 517593873#3 415876778 196779219#0 196779219#1 196779219#2 196779219#3 30833030#0 30833030#1 30833030#1.19 196779231#0 196779231#0.12 196779231#1 196779231#1.17 21452694#0 21452694#0.5 21452694#0.7 21452694#0.9 21452694#0.14 21452694#0.21 21452694#0.27 21452694#0.101 21452694#1 21452694#1.9 21452694#1.14 21452694#1.27 21452694#2 415878130#0 415878130#1 415878131#0 415878131#1 682209186 196779232 196779232.9 415878126 415878126.6 415878137#0 415878137#1 194859188#0 194859188#1 194859188#1.24 415878134#0 415878134#1 202177316#0 202177316#1 202177316#2 415878127 415878127.3 415878136#0 415878136#1 415876789 195433872 958717203 903957347 903957347.10 903957346#0 903957346#0.5 903957346#1 903957346#1.14 415876791 415876791.6 415876791.11 415876791.19 415876791.38 6365504#0 6365504#0.12 6365504#0.17 6365504#0.22 6365504#1 6365504#1.47 6365504#2 -6339579#6 -6339579#5 -6339579#5.3 -6339579#4 -6339579#3 -6339579#3.31 -22275208#0 -22275208#0.9 -22275208#0.117 -22275208#0.123 -22275208#0.126 -168627917 -22273558 -22273558.9 -22273558.13 -22273558.24 -22273558.35 -22273558.42 -22273558.50 -22273558.60 -22273558.68 -22273558.82 -22273558.94 -22273558.110 -22273558.116 168627975 168627975.5 168627975.13 168627975.23 168627975.33 -24314605#16 -24314605#16.7 -24314605#16.11 -24314605#16.83 -24314605#16.86 -24314605#15 -24314605#15.6 -24314605#15.8 -164658213#7 -164658213#6 -164658213#6.156 363370637#2 363370637#3 -21452801#8 -21452801#7 -21452801#6 -21452801#5 -21452801#5.63 -21452801#5.66 -21452801#4 32618074#7 32618074#8 32618074#8.82 32618074#8.84 22273546#1 22273546#1.1 22273546#1.2 22273546#1.4 22273546#1.5 22273546#2 22273546#2.1 22273546#2.2 22273546#2.4 22273546#2.5 22273546#3 22273546#3.1 22273546#3.3 22273546#3.4 22273546#3.6 -22278234 -22278234.3 -22278234.5 -22278234.190 -193256683#1 -193256683#1.8 -193256683#0 -36985599#3 -36985599#2 -36985599#2.120 -36985599#2.132 -36985599#2.140 -36985599#2.155 -36985599#2.166 -36985599#1 -36985599#1.11 -36985599#1.17 -36985599#0 -36985598 -6372698#3 -6372698#3.4 -6372698#2 -6372698#2.9 -6372698#2.152 -6372698#1 -6372698#1.6 -6372698#1.163 -6372698#1.180 -6372698#1.188 -6372698#1.196 -6372698#1.218 -6372698#0 -6372698#0.10 -6372698#0.23 -6372698#0.36 -6372698#0.49 -6372698#0.65 -6372698#0.80 -6372698#0.94 -6372698#0.109 -6372698#0.117 -189843769 -189843769.9 -189843769.16 -189843769.21 -189843769.40 -189843769.53 -189843769.65 -189843769.81 -189843769.92 -189843769.102 -189843769.112 -189843769.128 -189843769.138 -189843769.147 -189843769.158 -189843769.175 -189843769.191 -189843769.207 -189843769.220 -189843769.234 -189843769.257 -189843769.278 -189843769.293 -189843769.305 -189843769.317 -189843769.329 -189843769.366 -189843768 -189843768.9 -6372673#1 -6372673#1.8 -6372673#1.20 6338567#2 6338567#3 6338567#3.80 6338567#4 6338567#4.78 -193256686#18 -193256686#18.7 -193256686#18.13 -193256686#18.29 -193256686#18.38 -193256686#18.57 -193256686#18.88 -193256686#18.120 -193256686#18.133 -193256686#18.145 -193256686#18.160 -193256686#18.174 -193256686#18.187 -193256686#18.196 -193256686#18.199 -193256686#17 -193256686#17.11 -193256686#17.27 -193256686#17.62 -193256686#17.71 -193256686#16 -193256686#16.14 -193256686#16.26 -193256686#16.40 -193256686#16.54 -193256686#16.68 -193256686#16.103 -193256686#16.120 -193256686#15 -193256686#15.16 -193256686#15.31 -193256686#15.44 -193256686#15.66 -193256686#15.91 -193256686#15.106 -193256686#14 -193256686#14.15 -193256686#14.42 -193256686#14.52 -193256686#14.56 6371698#0 6371698#0.8 6371698#0.40 -6347601 -6347601.66 -6347601.77 -6347601.86 -6347601.97 -6347601.110 -6347601.121 -6347601.129 -6347601.138 -6347601.149 -6347601.160 -6347601.171 -6347601.182 -6347601.196 -6347601.246 -193256686#12 -193256686#12.5 -193256686#11 -193256686#10 -193256686#10.8 -193256686#10.24 -193256686#10.37 -193256686#10.49 -193256686#9 -193256686#9.5 -193256686#8 -193256686#8.5 -193256686#8.12 -193256686#8.105 -193256686#8.128 -193256686#8.132 -193256686#7 -193256686#6 -193256686#5 -193256686#5.27 -193256686#5.34 -193256686#5.40 -193256686#5.47 -193256686#5.54 -193256686#5.61 -193256686#5.69 -193256686#5.76 -193256686#5.84 -193256686#4 -193256686#4.7 -193256686#4.15 -193256686#3 -193256686#3.7 -193256686#3.19 -193256686#3.30 -193256686#3.41 -193256686#2 -193256686#2.16 -193256686#2.19 -193256686#2.48 6347788 6347788.7 6347788.9 6347788.14 6347788.22 6347788.51 6347788.59 6347788.65 6347788.71 6347788.77 6347788.83 -6341488#0 -6341488#0.9 -6341488#0.19 -6341488#0.28 -6341488#0.39 -6341488#0.86 -6341488#0.94 190579820 190579820.7 190579803 190579803.140 190579803.149 190579803.157 190579803.166 190579803.175 190579817#0 190579817#0.11 190579817#1 190579817#1.5 190579817#1.14 190579817#1.25 190579817#1.37 190579817#1.55 190579817#1.68 6333513#0 6333513#0.10 6333513#0.40 6333513#0.51 6333513#0.62 6333513#0.73 6407689#0 -11043364#4 -11043364#3 -11043364#2 -11043364#1 -11043364#0 -11043364#0.73 -11043364#0.81 -7857575#1 -7857575#1.27 -7857575#1.57 -7857575#1.75 -7857575#1.83 -7857575#1.99 -7857575#1.115 -7857575#1.152 -7857575#1.166 -7857575#1.179 -7857575#1.219 -7857575#1.229 -7857575#1.268 -7857575#1.290 -7857575#1.315 -7857575#1.332 -7857575#1.343 -7857575#1.361 -7857575#1.378 -7857575#1.390 -7857575#1.402 -7857575#1.416 -7857575#1.443 -7857575#1.452 -7857575#1.462"/>
</vehicle>
<vehicle id = "veh13" type= "veh_passenger" depart="21630" >
<route edges =" -316633577#1 -316633577#0 -6340080#2 -6340080#1 -6340080#0 -6340080#0.27 -201989373 -201989373.4 -201989373.9 -201989373.42 -201989355#2 -201989355#2.8 -201989355#2.38 -201989355#1 -201989355#0 -201989357 -201989357.7 -201989357.39 -201989357.50 -201989357.52 -6405162#1 -6405162#1.8 -6405162#1.26 -6405162#1.79 -6405162#0 -6405162#0.9 -6405162#0.41 -6405162#0.58 -6405162#0.69 -6405162#0.78 -6405162#0.84 -6405162#0.90 -6356253 -6356253.9 -6356253.18 -6356253.25 -6356253.32 -6356253.183 -6356253.191 -6356253.193 -201989360#2 -201989360#2.6 -201989360#2.14 -201989360#1 -201989360#1.34 -201989360#0 -201989360#0.20 -201989360#0.24 -656030857 -656030854 -21460887 -21460887.18 -24620184#1 -24620184#1.7 -24620184#0 -24620184#0.39 -24620184#0.44 -24620184#0.47 24620185#0 24620185#0.4 24620185#0.8 24620185#0.71 24620185#1 24620185#1.6 24620185#1.74 -6347525#0 -6347525#0.7 -6347525#0.198 -195430724#7 -195430724#7.8 -195430724#6 -195430724#6.35 -195430724#5 -195430724#5.10 -195430724#5.24 6369662#0 6369662#0.8 -6382818#1 6348367#1 6348367#1.91 6348367#1.95 -7795937 -7795937.3 -7795937.6 -7795937.11 -7795937.183 -7795937.190 43256407#5 43256407#6 21459815#0 21459815#1 -6339489#1 -6339489#1.6 -6339489#0 -6339489#0.112 -6339489#0.116 -6339489#0.117 -7781341#2 -7781341#1 -7781341#0 -7781341#0.21 -7781341#0.24 360736209#1 360736209#1.2 360736209#1.5 360736209#1.7 360736209#1.10 360736209#1.13 360736209#1.15 618175146 618175146.5 618175146.15 618175146.26 618175146.42 618175146.57 618175146.79 618175146.81 24620174 24620174.24 24620174.37 24620174.46 659099712#0 659099712#0.28 659099712#0.35 659099712#1 659099712#2 201989371#0 201989371#1 201989371#1.4 201989371#1.20 201989371#2 201989371#2.4 201989371#2.24 201989371#2.80 201989371#2.102 201989371#2.113 201989371#2.143 201989371#2.151 201989371#2.158 201989371#2.159 201989371#3 201989371#4 201989371#4.9 201989371#4.13 201989371#4.22 -6338294#1 -6338294#0 -6338294#0.13 -6338294#0.33 -6338294#0.79 -6338294#0.94 -6338294#0.100 -6377274#2 -6377274#2.14 -6377274#2.19 -6377274#2.20 -6377274#2.34 -6377274#2.36 -6377274#2.56 -6377274#2.83 -6377274#1 -6377274#1.17 -6377274#1.27 -6377274#0 -6377274#0.5 698805191#0 698805191#0.5 698805191#1 698805191#2 698805190 698805190.31 -517583963#3 -517583963#3.30 -517583963#2 -517583963#2.22 -517583963#1 -517583963#1.13 -517583963#1.28 -517583963#1.48 -517583963#0 -517583963#0.2 -517583963#0.16 -517583963#0.29 -195433870#1 698994085#1 21468137 21468137.63 21468137.66 -430174913 -698994083 -698994083.20 -698994083.93 -698994082 -698994082.6 -698994082.54 -430174917 -430174917.13 -22273562#0 -22273562#0.5 -22273562#0.14 22273560 22273560.7 22273560.25 22273560.34 22273560.43 22273560.50 22273560.57 22273560.68 22273560.81 -6365504#9 -6365504#9.25 22273567#2 22273567#2.7 184891166 184891177 227756441 227756441.8 227756441.14 227756442#0 227756442#0.17 -23089172#9 -23089172#9.6 -23089172#8 -23089172#7 -23089172#6 -23089172#6.22 -23089172#5 -23089172#5.7 -23089172#4 -23089172#3 -23089172#2 -23089172#2.9 -23089172#2.12 -23089172#2.20 -23089172#1 -23089172#1.4 -23089172#0 -23089172#0.2 -23089172#0.8 -23089172#0.32 -23089172#0.53 23089174 6365504#3 6365504#4 6365504#4.3 6365504#4.26 6365504#4.41 6365504#4.55 6365504#4.71 6365504#5 6365504#5.14 -6400775#27 -6400775#27.6 -6400775#26 -6400775#26.2 -6400775#26.21 -6400775#25 -6400775#25.7 -6400775#25.85 -6400775#25.87 -6341088#1 -6341088#1.6 -6341088#1.171 -6341088#0 -6341088#0.7 -6341088#0.123 -7990899#1 -7990899#0 -7990899#0.77 288127321#0 -6339575#4 -6339575#4.7 -6339575#3 -6339575#3.102 -6339575#3.107 -6339575#2 -6339575#2.7 -6339575#2.110 -6339575#2.116 -6339575#1 -6339575#1.10 -6339575#1.21 -6339575#1.33 -6339575#1.50 -6339575#1.56 -6339575#0 -6339575#0.7 -6339575#0.24 -6339575#0.34 -6339575#0.44 -6339575#0.53 -6339575#0.96 -6339575#0.102 -6339575#0.107 -6339575#0.112 -6339575#0.120 -6398981 -6398981.22 -6398981.50 -6398981.58 -6398981.64 -6398981.70 -6398981.93 -430285891 -6400775#9 -6400775#9.3 -6400775#8 -6400775#8.2 -6400775#7 -6400775#7.19 -6400775#7.34 -6400775#7.49 -6400775#7.64 -6400775#7.76 -6400775#6 -6400775#6.34 -6400775#5 -6400775#5.24 -6400775#5.53 -6400775#5.72 -6400775#5.79 -6400775#5.83 -6400775#5.99 -6400775#4 -6400775#3 -6400775#3.15 -6400775#3.35 -6400775#3.44 -6400775#3.53 -6400775#3.63 -6400775#3.76 -6400775#3.90 -6400775#3.101 -6400775#3.112 -6400775#3.121 -6400775#2 -6400775#2.9 -6400775#2.16 -6400775#2.23 -6400775#2.29 -6400775#1 -6400775#1.10 -6400775#1.28 -6400775#1.38 -6400775#1.49 -6400775#1.59 -6400775#0 -6400775#0.3 -6400775#0.8 24221419#0 24221419#0.12 24221419#0.22 24221419#0.35 24221419#0.47 24221419#1 24221419#1.10 24221419#2 24221419#2.4 24221419#2.15 24221419#2.26 24221419#2.38 24221419#2.49 24221419#3 24221419#4 24221419#4.8 24221419#4.15 24221419#4.24 24221419#4.32 24221419#4.41 24221419#4.49 24221419#4.57 24221419#4.69 24221419#4.82 24221419#4.94 24221419#4.100 24221419#4.109 24221419#4.119 24221419#4.127 24221419#5 24221419#5.9 24221419#5.16 24221419#5.22 24221419#5.29 -190579762#18 -190579762#18.4 -190579762#18.5 -190579762#18.14 -190579762#18.28 -190579762#18.50 -190579762#18.74 6402116#1 6402116#1.46 6402116#1.57 6402116#1.69 6402116#1.82 6402116#1.97 6402116#1.112 6402116#1.123 6402116#1.135 6402116#1.161 6402116#1.185 6331637#0 6331637#0.22 6331637#0.37 6331637#1 6331637#1.3 6341488#19 6348628 6348628.43 6348628.54 6348628.77 6348628.87 6348628.108 6348628.131 6348628.147 6348628.161 6348628.180 6348628.198 6348628.210 -30734874#1 -30734874#1.11 -30734874#1.42 -30734874#1.50 -30734874#1.68 -30734874#1.85 -30734874#1.100 -30734874#1.113 -30734874#1.121 -30734874#0 -30734874#0.4 -30734874#0.9 -6385200#9 -6385200#9.11 -6385200#9.21 -6385200#9.30 -6385200#9.39 -6385200#8 -6385200#8.6 -6385200#8.17 -6385200#8.29 -6385200#8.42 -6385200#8.54 -6385200#7 -6385200#7.17 -6385200#7.34 -6385200#7.54 -6385200#6 -6385200#6.5 -6385200#6.19 -6385200#6.33 -6385200#6.46 -6385200#6.65 -6385200#6.75 -6385200#6.84 -6385200#6.92 -6385200#5 -6385200#4 -6385200#4.10 -6385200#4.17 -6385200#4.24 -6385200#4.30 -6385200#4.63 -6385200#4.72 -6385200#4.79 -6385200#3 6394735#0 6394735#0.15 6394735#0.22 6394735#0.31 6394735#1 6394735#1.13 6394735#1.27 6394735#1.36 6394735#1.42 6394735#1.71 6394735#2 6394735#2.0 6394735#2.9 6394735#2.20 -6338076#7 -6338076#6 -6338076#6.14 -6338076#6.32 -6338076#6.45 -6338076#6.110 -6338076#5 -6338076#5.11 -6338076#4 -6338076#4.4 -6338076#4.13 -6338076#4.60 -6338076#4.67 -6338076#4.75 -6338076#4.85 -6338076#4.120 -6338076#4.141 -6338076#4.156 -6338076#3 -6338076#3.16 -6338076#3.41 -6338076#3.65 -6338076#3.77 -6338076#2 -6338076#2.18 -6338076#2.33 -6338076#2.39 -6338076#2.50 -6338076#2.65 -6338076#2.79 -6338076#2.91 -6338076#2.103 -6338076#2.111 -6338076#2.121 -6338076#2.130 -6338076#2.138 -6338076#1 -6338076#1.9 -6338076#1.19 -6338076#1.29 -6338076#1.43 6331171#5 6331171#5.7 6331171#5.13 6331171#5.41 6331171#5.57 6331171#5.70 6331171#5.82 6331171#5.95 6331171#5.107 6331171#5.128 6331171#5.144 6331171#5.151 6331171#5.159 -6382510#2 -6382510#2.34 -6382510#2.45 -6382510#2.53 -6382510#2.61 -6382510#2.72 -6382510#2.81 -6382510#2.91 -6382510#2.106 -6382510#2.119 -6382510#2.132 -6382510#1 -6382510#1.19 -6382510#1.26 -6382510#1.36 -6382510#1.44 -6382510#1.51 -6382510#1.61 -6382510#1.72 -6382510#1.92 -6382510#1.105 -6382510#1.114 -6382510#0 -6382510#0.11 -6382510#0.20 -6382510#0.26 -6382510#0.33 -6382510#0.39 6339085#8 6339085#8.38 6339085#8.56 6339085#8.116 6339085#8.126 6339085#8.134 6339085#8.142 -6336093#0 -6336093#0.17 -6336093#0.102 -6336093#0.112 -6336093#0.127 -6336095#2 -6336095#2.10 -6336095#2.139 -6336095#2.157 6338567#7 6338567#7.90 6338567#8 6338567#8.11 6338567#9 6338567#10 6338567#11 6338567#12 -190579811#1 -190579811#1.12 -190579811#1.20 -190579811#1.36 -190579811#1.50 -190579811#1.69 -190579811#1.82 -190579811#1.101 -190579811#1.120 -190579811#1.121 -11043363#4 -11043363#4.9 -11043363#4.16 -11043363#4.34 -11043363#4.41 -11043363#3 -11043363#3.7 -11043363#2 -11043363#1 -11043363#0 7857575#0 7857575#0.10 7857575#0.24 7857575#0.39 7857575#0.57 7857575#0.75 7857575#0.88 7857575#0.126 7857575#0.144 7857575#0.146 7857575#0.162 7857575#0.184 7857575#0.212 7857575#0.218 7857575#0.224 7857575#0.229 7857575#0.241 7857575#0.275 7857575#0.303 7857575#0.315 7857575#0.324 7857575#0.326 7857575#0.339 7857575#0.350 7857575#0.357 7857575#0.360 7857575#0.410 7857575#1 7857575#1.42 7857575#1.66 7857575#1.85"/>
</vehicle>
</routes>
