<?xml version="1.0" encoding="UTF-8"?>
<routes xmlns:xsi="http: // www.w3.org/2001/XMLSchema-instance" xsi:noNamespaceSchemaLocation="http: // sumo.dlr.de/xsd/routes_file.xsd">
<vType id="veh_passenger" vClass="passenger"/>

<vehicle id = "veh0" type= "veh_passenger" depart="0" >
<route edges =" -316633577#1 -316633577#0 -797309094#1 -797309094#0 -797309094#0.6 -797309094#0.12 -797309095 -165864174#3 -165864174#2 -165864174#1 -34361024#1 -34361024#0 -34361024#0.80 -188703042#5 -188703042#4 -188703042#4.59 -188703042#3 -188703042#3.6 -188703042#3.24 -188703042#2 -188703042#1 -188703042#1.59 -188703042#1.74 -188703042#0 -188703042#0.9 -188703042#0.21 -188703049 -201989352#2 -201989352#2.8 -201989352#1 -201989352#1.9 -201989352#1.29 -201989352#0 -34361041#1 -34361041#0 -34361041#0.92 -528122494 -528122494.9 -6360234#7 -6360234#6 -6360234#6.186 -6360234#6.194 -168627934#0 -168627934#0.7 -34811472#12 -34811472#12.8 -34811472#11 -34811472#10 -34811472#9 -34811472#9.6 -34811472#9.49 -34811472#8 -34811472#7 -34811472#6 -34811472#5 -34811472#4 -34811472#4.71 -34811472#3 -34811472#3.7 -34811472#3.66 -34811472#3.122 -34811472#3.194 -34811472#2 -34811472#2.8 -34811472#2.70 -34811472#2.135 -34811472#2.192 -24024251#2 -24024251#2.7 -910274653#0 -930646447 -910274656 -210456949#12 -210456949#12.41 -210456949#11 -210456949#10 -210456949#9 -210456949#9.190 -210456949#8 -210456949#8.10 -26379345#9 -26379345#8 -26379345#8.93 24028181#3 24028181#4 24028181#4.122 24028181#5 24028181#5.186 -190017518#0 -190017518#0.7 -190017518#0.88 -999534620#25 -999534620#24 -999534620#24.3 -541349569 -541349569.193 -6356133#2 -6356133#2.8 -6356133#2.193 -6356133#1 -6356133#1.9 -6356133#0 -541349570 -819368215#0 -819368215#0.76 415870533#8 415870533#8.6 415870533#9 415870525#0 415870525#0.13 415870525#1 415870525#2 22370937#0 22370937#1 22370937#2 22370937#3 22370937#3.6 22370937#4 22370937#4.6 22370937#5 22370937#5.11 22370937#6 22370937#7 415870519#0 415870519#1 415870531#0 415870531#1 415870531#1.26 415870531#2 22370936#0 22370936#0.7 22370936#0.14 -6353149 1014203284#2 -30832687#3 -30832687#3.8 422792872#1 422792872#1.9 -6346111#4 -6346111#4.91 -6346111#4.93 195433868#5 195433868#5.7 195433868#6 195433868#6.6 -7840628#2 -7840628#2.8 -7840628#1 -7840628#1.193 168627943#7 168627943#7.7 -24164451#1 -24164451#1.7 -24164451#1.193 -24164451#0 24164453 24164453.10 24164453.23 32456680 32456680.2 -422947668 -422947668.11 -233686193 -233686193.8 -196750859#2 -196750859#1 -196750859#1.40 6378198#0 6378198#0.13 6378198#0.178 6378198#0.195 6378198#1 6378198#2 6378198#3 6378198#3.3 6378198#4 6378198#4.3 697544433#2 697544433#2.14 6351007#0 6351007#0.29 6351007#0.46 6351007#0.52 6351007#0.56 6351007#0.62 6351007#0.66 6351007#0.72 6351007#0.77 6351007#0.83 6351007#0.89 6351007#0.98 6351007#1 -6332167#0 -6332167#0.10 6386692#3 6386692#3.3 6386692#3.6 6386692#3.9 6338567#0 6338567#0.10 6338567#0.118 6338567#1 6338567#1.107 6338567#2 6338567#3 6338567#3.80 6338567#4 6338567#4.78 6338567#5 6338567#5.8 6338567#6 6338567#7 6338567#7.90 6338567#8 6338567#8.11 6338567#9 6338567#10 6338567#11 6338567#12 30156401#0 -6333513#3 -6333513#3.137 -11043363#3 -11043363#3.7 -11043363#2 -11043363#1 -11043363#0 7857575#0 7857575#0.10 7857575#0.24 7857575#0.39 7857575#0.57 7857575#0.75 7857575#0.88 7857575#0.126 7857575#0.144 7857575#0.146 7857575#0.162 7857575#0.184 7857575#0.212 7857575#0.218 7857575#0.224 7857575#0.229 7857575#0.241 7857575#0.275 7857575#0.303 7857575#0.315 7857575#0.324 7857575#0.326 7857575#0.339 7857575#0.350 7857575#0.357 7857575#0.360 7857575#0.410 7857575#1 7857575#1.42 7857575#1.66 7857575#1.85"/>
</vehicle>
<vehicle id = "veh1" type= "veh_passenger" depart="0" >
<route edges =" 797309093 797309091#0 797309091#0.10 797309091#1 797309091#1.7 797309091#2 797309091#2.10 797309091#2.15 797309091#3 377635148 377635148.3 377635148.5 -437142992 -437142992.6 -6329160 -6329160.124 -6329160.133 785854260#3 785854260#3.11 785854260#3.30 -763290363 -763290363.11 -24620691#4 -24620691#3 -24620691#2 -24620691#1 -24620691#0 24620690 24620690.5 -24620688 24620689#0 24620689#0.6 24620689#1 24620689#1.9 -201989358#2 -201989358#2.18 -201989358#1 -201989358#1.6 -201989358#1.82 -201989358#0 -195430724#15 -195430724#14 -195430724#14.20 -195430724#13 -195430724#13.78 -195430724#12 -195430724#12.8 -195430724#12.12 -195430724#11 -195430724#11.17 -164659478#5 -164659478#5.7 -164659478#4 -6362542#1 -6362542#1.7 -6362542#0 -6362542#0.104 -7783135#3 -7783135#3.7 -7783135#2 -7783135#2.7 -7783135#1 -7783135#0 -7783135#0.101 43256415 43256415.22 -6345181#8 -6345181#8.4 -6345181#8.7 -6345181#8.93 541334899#0 541334899#0.7 541334899#1 541334899#2 541334899#3 541334899#4 541334899#5 541334900#0 541334900#1 541334900#2 541334900#3 541334900#4 541334900#5 541334900#6 698994092#3 698994092#4 698994092#4.84 6348015 6348015.7 761330890 761330889#0 761330889#1 761330889#2 761330889#3 761330889#3.83 761330889#4 517593873#2 517593873#2.29 517593873#3 415876778 22278225#0 22278225#0.24 22278225#1 22278225#1.6 22278225#1.16 22278225#1.26 196779231#0 196779231#0.12 196779231#1 196779231#1.17 21452694#0 21452694#0.5 21452694#0.7 21452694#0.9 21452694#0.14 21452694#0.21 21452694#0.27 21452694#0.101 21452694#1 21452694#1.9 21452694#1.14 21452694#1.27 21452694#2 415878130#0 415878130#1 415878131#0 415878131#1 682209186 196779232 196779232.9 415878126 415878126.6 415878137#0 415878137#1 194859188#0 194859188#1 194859188#1.24 415878134#0 415878134#1 202177316#0 202177316#1 202177316#2 415878127 415878127.3 415878136#0 415878136#1 -415876790#1 -415876790#0 -756453993 -559526390 -559526390.35 -164658213#11 -164658213#11.10 -164658213#11.12 -164658213#10 -164658213#10.55 -164658213#9 -164658213#8 -164658213#7 -164658213#6 -164658213#6.156 -164658213#5 -164658213#5.7 -164658213#4 -164658213#4.36 -164658213#3 -164658213#2 -164658213#1 -164658213#0 -164658213#0.113 164658212#0 164658212#0.7 164658212#1 193256683#0 193256683#1 193256683#1.83 -618189913#5 -618189913#5.7 -618189913#5.17 -618189913#5.34 -618189913#4 -618189913#4.5 -618189913#4.9 -618189913#4.25 -618189913#3 -618189913#2 -618189913#1 -618189913#1.76 -618189913#1.91 -618189913#0 -618189913#0.6 -618189913#0.24 -618189913#0.90 -618189913#0.190 -618189913#0.204 -618189913#0.219 -618189913#0.231 -694455409#6 -694455409#6.8 -694455409#6.11 -694455409#6.20 -694455409#6.38 -694455409#5 -694455409#5.10 -694455409#5.23 -694455409#5.42 -694455409#5.118 6402116#0 6402116#0.7 6402116#0.10 6402116#0.16 6402116#0.20 6402116#0.54 6402116#0.162 6402116#0.179 6402116#0.194 6402116#0.209 6402116#0.228 6402116#0.245 6402116#0.264 6402116#0.286 6402116#0.307 6402116#0.326 6402116#0.377 6402116#0.411 6402116#0.433 -190579762#17 -190579762#17.47 6341488#16 6341488#16.13 6341488#16.20 6341488#16.48 6341488#16.58 6341488#16.72 6341488#16.96 6341488#16.142 6341488#16.158 6341488#16.170 6341488#16.183 6341488#16.197 -6336093#4 -6336093#4.17 -6336093#4.38 -6336093#4.53 -6336093#4.79 -6336093#4.90 -6336093#3 -6336093#3.13 -6336093#3.25 -6336093#3.39 -6336093#3.120 -6336093#3.127 -6336093#3.135 -6336093#2 -6336093#1 -6339085#8 -6339085#8.12 -6339085#8.19 -6339085#8.28 -6339085#8.38 -6339085#8.98 -6339085#8.116 -6339085#7 -6339085#7.29 -6339085#7.47 -6339085#7.68 -6339085#7.87 -6339085#7.110 -6339085#6 -6339085#5 -6339085#5.13 -6339085#5.24 -6339085#5.39 -6339085#4 -6339085#4.58 -6339085#4.92 -6339085#4.103 -6339085#3 -6339085#3.11 -6339085#3.19 -6339085#3.40 -6339085#3.47 -6339085#3.56 -6339085#3.68 -6339085#3.81 -6339085#3.95 -6339085#3.107 -6339085#3.120 -6339085#2 -6339085#2.14 -6339085#2.26 -6339085#2.37 -6339085#2.49 -6339085#2.63 -6339085#2.115 -6339085#2.125 -6339085#2.140 -6339085#1 -6339085#0 -6339085#0.12 -6339085#0.27 -6339085#0.45 -6339085#0.77 -6339085#0.87 -6339085#0.98 -6339085#0.119 -6339085#0.129 -190579779#0 -190579779#0.109 -190579779#0.117 6333513#0 6333513#0.10 6333513#0.40 6333513#0.51 6333513#0.62 6333513#0.73 6407689#0 -11043364#4 -11043364#3 -11043364#2 -11043364#1 -11043364#0 -11043364#0.73 -11043364#0.81 -7857575#1 -7857575#1.27 -7857575#1.57 -7857575#1.75 -7857575#1.83 -7857575#1.99 -7857575#1.115 -7857575#1.152 -7857575#1.166 -7857575#1.179 -7857575#1.219 -7857575#1.229 -7857575#1.268 -7857575#1.290 -7857575#1.315 -7857575#1.332 -7857575#1.343 -7857575#1.361 -7857575#1.378 -7857575#1.390 -7857575#1.402 -7857575#1.416 -7857575#1.443 -7857575#1.452 -7857575#1.462"/>
</vehicle>
<vehicle id = "veh2" type= "veh_passenger" depart="3605" >
<route edges =" -316633577#1 -316633577#0 -6340080#2 -6340080#1 -6340080#0 -6340080#0.27 -201989373 -201989373.4 -201989373.9 -201989373.42 678979330 678979330.18 24620199 24620199.9 24620199.11 201989357 201989357.9 201989357.10 201989357.21 201989357.53 -5149904#1 -5149904#1.7 -5149904#0 -5149904#0.2 -34361024#1 -34361024#0 -34361024#0.80 -188703042#5 -188703042#4 -188703042#4.59 -6402088#0 -6402088#0.9 -6402088#0.92 -10585277#2 -10585277#1 -10585277#0 -10585277#0.48 -10585277#0.51 -10585277#0.54 6338310#0 6338310#0.3 6338310#0.5 6338310#1 6338310#1.2 6338310#1.9 6338310#1.80 6338310#1.82 -188703042#0 -188703042#0.9 -188703042#0.21 -6329505#1 -6329505#1.9 -6329505#1.18 -6329505#1.26 -6329505#1.79 -6329505#1.88 -6329505#1.97 -6329505#1.104 -6329505#0 -201989352#2 -201989352#2.8 -201989352#1 -201989352#1.9 -201989352#1.29 -201989352#0 -34361041#1 -34361041#0 -34361041#0.92 -528122493#2 -528122493#2.7 -528122493#1 -528122493#0 -6362542#4 -6362542#4.10 -6362542#3 -6362542#3.78 -6362542#3.89 -6362542#3.98 -6362542#3.102 -6362542#2 -6362542#2.12 -6362542#2.19 -6362542#2.179 -6362542#1 -6362542#1.7 -6362542#0 -6362542#0.104 -7783135#3 -7783135#3.7 -164659473#10 -164659473#10.7 -164659473#9 -164659473#8 -164659473#8.12 -164659473#7 -164659473#7.13 -164659473#6 -164659473#6.16 -202317716#12 -202317716#12.7 -202317716#11 -202317716#11.7 -202317716#10 -202317716#10.15 -202317716#9 -202317716#9.44 -202317716#8 -202317716#8.7 -202317716#7 -202317716#6 -202317716#5 -202317716#4 -202317716#3 -202317716#3.20 -202317716#3.88 -202317716#2 -202317716#1 -202317716#1.25 -202317716#1.51 -202317716#0 -574299582#12 -574299582#11 -574299582#10 -574299582#10.22 -574299582#10.72 -574299582#9 -574299582#9.7 -574299582#8 -574299582#8.52 -574299582#8.71 -574299582#7 -164659477#2 -164659477#1 -164659477#0 -164659477#0.133 164659493#2 164659493#2.1 164659493#2.3 164659493#2.5 164659493#2.7 -164659450#1 -164659450#1.3 -164659450#1.87 -164659450#0 -164659450#0.7 -164659450#0.91 164659505#1 164659505#1.1 164659505#1.3 164659505#1.4 164659505#1.6 164659505#2 164659505#2.1 164659505#2.2 164659505#2.4 164659505#2.5 164659505#3 164659505#3.1 164659505#3.3 164659505#3.4 164659505#3.6 -164659479 -164659479.3 -164659479.186 164659511#2 164659511#2.1 164659511#2.2 164659511#2.4 164659511#2.5 -164659460 -164659460.2 -164659460.87 164659515#1 164659515#1.1 164659515#1.3 164659515#1.4 164659515#1.6 164659482 164659482.3 164659482.186 164659489#4 164659489#0 164659489#0.1 164659489#0.2 164659489#0.4 164659489#1 164659489#1.1 164659489#1.3 164659489#1.4 164659489#1.6 164659489#2 164659489#2.1 164659489#2.3 164659489#2.4 164659489#2.6 -164659447#1 -164659447#1.3 -164659447#1.87 -34811472#2 -34811472#2.8 -34811472#2.70 -34811472#2.135 -34811472#2.192 -24024251#2 -24024251#2.7 -910274653#0 -930646447 -910274656 -210456949#12 -210456949#12.41 -210456949#11 -210456949#10 32456661#2 32456661#2.7 32456661#3 32456661#3.36 32456661#4 32456661#4.8 32456661#4.92 6384487#14 6384487#14.6 6384487#14.9 6384487#15 6384487#16 6384487#17 6384487#17.26 6384487#17.33 6384487#17.39 6384487#18 1000718782#3 6351923#0 6351923#0.6 6351923#0.22 6351923#1 165864142#0 165864142#1 165864142#2 165864142#3 165864142#4 165864142#5 165864142#5.33 165864142#6 -25968331#2 -25968331#1 -25968331#0 -32456661#9 -32456661#9.7 -32456661#9.91 -25968351#5 -25968351#5.187 -25968351#5.190 -201989365#10 -201989365#10.8 -201989365#10.77 -201989365#10.92 -6332538#5 -6332538#5.10 -6332538#5.14 -6332538#5.141 26379345#13 26379345#13.7 26379345#13.93 -25968351#1 -25968351#1.6 -25968351#1.77 -25968351#1.134 25968337#15 25968337#15.7 25968337#15.104 25968349#3 25968349#4 25968349#4.5 168627951#0 168627951#0.7 168627951#0.65 168627951#1 168627951#1.47 168627951#2 168627951#2.19 168627951#3 168627951#4 168627951#5 201989365#13 201989365#14 416112025#0 416112025#0.14 416112025#0.30 416112025#1 417696931#0 417696931#1 417696931#1.1 417696931#1.37 417696914 25315667#0 25315667#1 25315667#1.70 25315667#2 25315667#3 -164659486#3 -164659486#2 -164659486#2.5 6350387 164659452#3 164659452#3.21 164659452#4 196739912#1 196739912#2 196739912#3 196739912#4 196739912#5 196739912#6 -164659467#1 -164659467#0 -164659467#0.6 -164659467#0.76 -164659467#0.108 -164659467#0.114 164659506#2 164659506#2.1 164659506#2.2 164659506#2.4 164659506#2.5 -164659445 -164659445.3 -164659445.5 -164659445.61 -164659445.85 -164659445.87 164659499#1 164659499#1.1 164659499#1.3 164659499#1.4 164659499#1.6 164659499#2 164659499#2.1 164659499#2.2 164659499#2.4 164659499#2.5 164659499#3 164659499#3.1 164659499#3.3 164659499#3.4 164659499#3.6 -164659454#1 -164659454#1.3 -164659454#1.4 -164659454#0 -164659454#0.49 -164659454#0.51 164659496#2 164659496#2.1 164659496#2.3 164659496#2.4 164659496#2.6 164659496#3 164659496#3.1 164659496#3.3 164659496#3.4 164659496#3.6 -54584534#3 -54584534#3.3 -54584534#3.5 -54584534#2 -54584534#1 -54584534#0 -54584534#0.62 164659495#2 164659495#2.1 164659495#2.3 164659495#2.4 164659495#2.6 164659495#3 164659495#3.1 164659495#3.3 164659495#3.4 164659495#3.6 -6360413#6 -6360413#6.4 -6360413#6.8 -6360413#5 -6360413#5.6 -6360413#4 -6360413#3 -6360413#3.18 -6360413#3.72 -6360413#3.75 415883919#0 415883919#0.7 415883919#1 415883919#1.6 415883909 22370934#0 22370934#0.11 6359161#0 6359161#0.8 6359161#0.48 6359161#1 6359161#1.32 6359161#1.70 6359161#1.72 164659508#4 164659508#0 164659508#0.1 164659508#0.2 164659508#0.4 164659508#1 164659508#1.1 164659508#1.2 164659508#1.4 164659508#1.5 164659485#0 164659485#0.4 164659485#1 164659485#1.7 164659485#2 164659485#3 164659485#4 164659485#5 164659485#5.6 164659485#5.59 164659485#5.61 164659488#4 164659488#0 164659488#0.1 164659488#0.2 164659488#0.4 164659488#1 164659488#1.1 164659488#1.2 164659488#1.4 164659488#1.5 164659484 164659484.3 164659484.38 164659484.78 164659502#4 164659502#0 164659502#0.1 164659502#0.2 164659502#0.4 164659502#1 164659502#1.1 164659502#1.2 164659502#1.4 164659502#1.5 164659502#2 164659502#2.1 164659502#2.2 164659502#2.4 164659502#2.5 -780990150 -780990150.3 -780990150.5 -780990150.88 780990149#0 780990149#0.8 -6350384#1 -6350384#1.188 -201989350#7 -201989350#7.9 -201989350#7.85 -201989350#6 -201989350#6.7 -201989350#6.24 -201989350#6.62 -201989350#5 -201989350#4 -201989350#3 -201989350#2 -201989350#2.121 -201989350#2.135 25968348#2 25968348#2.7 25968348#2.86 25968348#2.91 164659492#3 164659492#3.1 164659492#3.3 164659492#3.4 164659492#3.6 164659492#4 164659492#0 164659492#0.1 164659492#0.2 164659492#0.4 164659492#1 164659492#1.1 164659492#1.3 164659492#1.4 164659492#1.6 164659480 164659480.4 164659480.70 164659480.134 164659480.219 6343678#5 6343678#5.7 6343678#5.40 6343678#5.92 164659491#3 164659491#3.1 164659491#3.3 164659491#3.4 164659491#3.6 -164659474#3 -164659474#3.3 -164659474#2 -164659474#2.14 -164659474#1 -164659474#1.37 -164659474#0 -164659474#0.54 164659494#2 164659494#2.1 164659494#2.3 164659494#2.4 164659494#2.6 164659494#3 164659494#3.1 164659494#3.3 164659494#3.4 164659494#3.6 -242883500#6 -242883500#6.3 -242883500#6.41 -242883500#5 -242883500#4 -242883500#3 -242883500#2 -242883500#1 -242883500#1.6 -242883500#1.64 22370934#2 22370934#2.6 22370934#3 22370934#4 415883911#0 415883911#0.30 415883911#1 415883933#0 415883933#1 415883933#2 6380696#0 6380696#0.8 6380696#0.68 6380696#0.74 6380696#0.174 -25968348#0 -25968348#0.6 -25968348#0.55 -25968348#0.67 -25968348#0.75 -25968348#0.80 25968353#2 25968353#2.1 25968353#2.2 25968353#2.3 25968353#2.4 25968353#2.5 25968353#2.6 25968353#3 25968353#3.1 25968353#3.2 25968353#3.3 25968353#3.4 -25968346#2 -25968346#2.3 -25968346#2.8 -25968346#1 -25968346#0 -25968346#0.40 25968357#2 25968357#2.1 25968357#2.3 25968357#2.4 25968357#2.6 25968357#3 25968357#3.1 25968357#3.3 25968357#3.4 25968357#3.6 -25968345#3 -25968345#3.3 -25968345#3.87 -25968345#2 -25968345#2.7 -25968345#2.93 -25968345#1 -25968345#1.7 -25968345#0 -25968345#0.49 25968359#2 25968359#2.1 25968359#2.2 25968359#2.4 25968359#2.5 25968359#2.7 25968350#0 25968350#0.3 25968350#1 25968350#1.193 26379345#11 26379345#11.7 26379345#11.92 6384487#12 6384487#12.6 6384487#12.144 6384487#12.146 -201989365#8 -201989365#8.7 -201989365#8.30 -201989365#7 -201989365#6 -201989365#5 -201989365#4 -201989365#4.4 -201989365#4.16 -201989365#4.82 -201989365#3 -201989365#3.8 -201989365#3.73 -201989365#3.91 -201989365#2 -201989365#2.8 -201989365#2.25 -201989365#2.92 24028181#1 24028181#1.10 24028181#2 24028181#2.148 -26379345#7 -26379345#7.22 -26379345#7.36 -26379345#7.76 -26379345#7.91 -26379345#7.92 999534620#30 999534620#30.7 999534620#30.12 999534620#30.55 -28076018 -28076018.8 -28076018.29 -28076018.194 -28076018.195 -423105092#1 -423105092#1.8 -26379345#3 -26379345#3.7 -26379345#3.9 -26379345#2 -26379345#2.64 -164659430#2 -164659430#2.8 6404288#4 6404288#4.7 6404288#4.188 6404288#4.193 6404288#4.196 -164659440#2 -164659440#2.3 -164659440#2.7 -164659440#2.12 25968337#5 25968337#5.8 25968337#5.193 25968337#5.194 -999534620#27 -999534620#27.6 -999534620#26 -999534620#26.51 -999534620#26.67 -999534620#26.74 -999534620#25 -999534620#24 -999534620#24.3 -541349569 -541349569.193 -6356133#2 -6356133#2.8 -6356133#2.193 -541349219#2 -541349219#2.75 -541349219#2.77 415870533#3 415870533#3.7 415870533#4 415870533#5 7773729#6 7773729#7 -541349570 -819368215#0 -819368215#0.76 415870533#8 415870533#8.6 415870533#9 415870525#0 415870525#0.13 415870525#1 415870525#2 22370937#0 22370937#1 22370937#2 22370937#3 22370937#3.6 22370937#4 22370937#4.6 22370937#5 22370937#5.11 22370937#6 22370937#7 415870519#0 415870519#1 415870531#0 415870531#1 415870531#1.26 415870531#2 415870531#3 415870531#4 415870526#0 415870526#0.35 415870526#1 415870529#0 415870529#1 415870529#1.19 415870529#2 415803769#0 415803769#1 195433879#0 195433879#1 195433879#1.15 195433879#1.152 195433879#1.162 188858625#0 188858625#1 574396276#2 574396276#3 164658838#0 6339229#0 6339229#1 195433868#2 195433868#2.85 195433868#3 195433868#3.8 195433868#4 195433868#4.108 6346111#4 6346111#4.7 6346111#4.9 -422792872#1 -422792872#1.191 30832687#3 30832687#3.91 30832687#4 30832687#4.8 22370936#2 22370936#2.9 24314606#1 7841698#3 7841698#4 7841698#4.7 7841698#4.8 7841698#5 7841698#5.31 7841698#5.33 -363370643#3 -363370643#3.7 -363370643#2 -363370643#2.27 -363370643#1 -363370643#1.7 -363370643#1.77 -363370643#1.93 24314605#5 24314605#5.7 24314605#5.10 -6388365#5 -6388365#5.6 -6388365#5.9 -6388365#5.194 -6388365#5.195 -415882499#1 -415882499#1.7 -415882499#1.89 -415882499#0 -195433868#9 -195433868#8 -195433868#8.3 -195433868#8.84 24164451#5 24164451#5.8 24164451#5.10 24164451#5.192 -24314605#3 -24314605#2 -24314605#1 -6333700#4 -6333700#4.7 -6333700#4.93 -6333700#3 -6333700#3.6 -6333700#3.89 -6333700#3.91 195433868#6 195433868#6.6 -7840628#2 -7840628#2.8 -7840628#1 -7840628#1.193 168627943#7 168627943#7.7 -24164451#1 -24164451#1.7 -24164451#1.193 6402601#1 6402601#1.92 6402601#2 6402601#2.7 6402601#2.93 -6388365#0 -6388365#0.7 -6388365#0.178 -6388365#0.190 -6388365#0.204 -6388365#0.217 -6356111#0 -6356111#0.89 -415884035#1 -415884035#0 -195595386#2 -195595386#2.4 -195595386#1 -195595386#1.5 -195595386#0 -460683946#1 -460683946#0 -415884036 -415884036.2 -417526452 -417526452.5 -417526452.27 -417526430 -196750859#2 -196750859#1 -196750859#1.40 6378198#0 6378198#0.13 6378198#0.178 6378198#0.195 6378198#1 6378198#2 6378198#3 6378198#3.3 6378198#4 6378198#4.3 6408035 6408035.10 697544432 697544432.9 415884026#0 415884026#1 415884026#1.1 30832954#0 541337829 541337829.12 541337829.13 541337829.20 541337829.28 -6327827#1 -6327827#1.7 -6327827#0 -6327827#0.170 541338171#0 187827704#2 187827704#2.7 187827704#2.15 187827704#2.33 187827704#2.51 187827704#2.70 187827704#2.88 187827704#2.107 187827704#2.123 187827704#2.139 187827704#2.159 187827704#2.236 187827704#2.255 187827704#2.270 187827704#2.279 6338567#1 6338567#1.107 6338567#2 6338567#3 6338567#3.80 -11154779#8 -11154779#8.6 -11154779#8.12 436204257#0 436204257#0.6 436204257#0.13 -6374520#5 -6374520#5.44 -6374520#5.63 -6374520#5.83 -6374520#5.96 -6374520#5.105 -6374520#5.115 -6374520#5.137 -6374520#5.239 -6374520#5.253 -6374520#5.266 -6374520#5.279 -6374520#5.291 -6374520#5.307 -6374520#5.326 -6374520#4 -6374520#4.17 -6374520#4.36 -6374520#3 -6374520#3.15 -6374520#3.41 -6374520#3.52 -6374520#3.65 -6374520#3.73 -6374520#3.85 -6374520#2 -6374520#2.14 -6374520#2.25 6370397 6370397.9 6370397.14 6370397.24 6370397.32 6370397.41 6370397.46 6370397.52 6370397.72 6370397.79 6370397.86 6370397.94 6370397.107 11154779#5 11154779#5.12 11154779#5.91 11154779#5.98 11154779#5.104 11154779#6 11154779#6.16 11154779#6.25 11154779#6.50 11154779#6.61 11154779#6.70 11154779#6.80 11154779#6.93 6358815#1 6358815#1.12 6358815#1.27 6358815#1.43 6358815#1.56 6358815#1.69 6358815#1.82 6358815#1.118 6358815#1.128 6358815#1.136 6358815#1.143 6358815#1.151 6358815#1.159 6358815#1.173 6358815#1.183 193256686#17 193256686#17.12 193256686#17.22 193256686#17.56 193256686#17.72 193256686#18 193256686#18.11 193256686#18.14 193256686#18.23 193256686#18.36 193256686#18.49 193256686#18.64 193256686#18.77 193256686#18.90 193256686#18.121 193256686#18.152 193256686#18.172 193256686#18.180 193256686#18.196 193256686#18.203 6338567#5 6338567#5.8 6338567#6 6338567#7 6338567#7.90 6338567#8 6338567#8.11 6338567#9 6338567#10 6338567#11 6338567#12 30156401#0 -6333513#3 -6333513#3.137 -11043363#3 -11043363#3.7 -11043363#2 -11043363#1 -11043363#0 7857575#0 7857575#0.10 7857575#0.24 7857575#0.39 7857575#0.57 7857575#0.75 7857575#0.88 7857575#0.126 7857575#0.144 7857575#0.146 7857575#0.162 7857575#0.184 7857575#0.212 7857575#0.218 7857575#0.224 7857575#0.229 7857575#0.241 7857575#0.275 7857575#0.303 7857575#0.315 7857575#0.324 7857575#0.326 7857575#0.339 7857575#0.350 7857575#0.357 7857575#0.360 7857575#0.410 7857575#1 7857575#1.42 7857575#1.66 7857575#1.85"/>
</vehicle>
<vehicle id = "veh3" type= "veh_passenger" depart="3605" >
<route edges =" 797309093 797309091#0 797309091#0.10 797309091#1 797309091#1.7 797309091#2 797309091#2.10 797309091#2.15 797309091#3 377635148 377635148.3 377635148.5 377635149#0 377635149#0.19 377635149#0.28 377635149#0.40 377635149#0.54 -437142996 -437142996.8 -437142997 -437142997.7 -437142997.19 -437142997.28 -437142995 -6336839 -6336839.8 -6336839.22 -6336839.37 -6336839.47 -6336839.56 -6336839.71 -6336843 -6336843.11 -6336843.20 -6336843.52 785854260#5 -20625899 -20625899.13 -20625899.430 6344478 6344478.10 -201989358#4 -201989358#4.8 -201989358#4.92 -201989358#4.97 -201989358#3 -201989358#2 -201989358#2.18 -201989358#1 -201989358#1.6 -201989358#1.82 -201989358#0 -195430724#15 -195430724#14 -195430724#14.20 -195430724#13 -195430724#13.78 10585275#1 10585275#1.9 10585275#2 -6357225 -6357225.7 -6332541#0 -6332541#0.83 -164659478#5 -164659478#5.7 -6360234#6 -6360234#6.186 -6360234#6.194 -168627934#0 -168627934#0.7 -34811472#12 -34811472#12.8 -34811472#11 -34811472#10 -34811472#9 -34811472#9.6 -34811472#9.49 -34811472#8 -34811472#7 -34811472#6 202317716#5 202317716#6 202317716#7 202317716#8 202317716#8.63 202317716#9 202317716#9.7 202317716#10 202317716#10.12 202317716#11 202317716#11.3 202317716#12 202317716#12.6 164659473#6 164659473#6.15 164659473#7 164659473#7.11 164659473#8 164659473#8.3 164659473#9 164659473#10 164659473#10.107 164659473#11 164659473#12 164659473#12.106 195430724#3 195430724#3.27 195430724#3.158 195430724#4 6369662#0 6369662#0.8 -6382818#1 -6348367#0 -6348367#0.92 -195430724#1 -195430724#1.26 -195430724#0 -698994081#5 -698994081#4 -698994081#3 -698994081#2 -698994081#1 -698994081#0 -698796634#2 -698796634#1 -698796634#1.7 -698796634#1.12 -698796634#0 -541335494#11 -541335494#10 -541335494#10.2 -541335494#10.3 -541335494#9 -541335494#8 -541335494#7 -541335494#6 -541335494#5 -541335494#4 -541335494#4.39 6345181#7 6345181#7.7 6345181#7.92 541334899#0 541334899#0.7 541334899#1 541334899#2 541334899#3 541334899#4 541334899#5 541334900#0 541334900#1 541334900#2 541334900#3 541334900#4 541334900#5 541334900#6 541334900#7 541334900#8 -6371277 -6371277.7 -6371277.92 27877606#6 27877606#7 27877606#7.53 6348015 6348015.7 761330890 761330889#0 761330889#1 761330889#2 761330889#3 761330889#3.83 761330889#4 517593873#2 517593873#2.29 517593873#3 415876778 22278225#0 22278225#0.24 22278225#1 22278225#1.6 22278225#1.16 22278225#1.26 196779231#0 196779231#0.12 196779231#1 196779231#1.17 21452694#0 21452694#0.5 21452694#0.7 21452694#0.9 21452694#0.14 21452694#0.21 21452694#0.27 21452694#0.101 21452694#1 21452694#1.9 21452694#1.14 21452694#1.27 21452694#2 415878130#0 415878130#1 415878131#0 415878131#1 682209186 196779232 196779232.9 415878126 415878126.6 415878137#0 415878137#1 194859188#0 194859188#1 194859188#1.24 415878134#0 415878134#1 202177316#0 202177316#1 202177316#2 415878127 415878127.3 415878136#0 415878136#1 415876789 195433872 958717203 903957347 903957347.10 903957346#0 903957346#0.5 903957346#1 903957346#1.14 415876791 415876791.6 415876791.11 415876791.19 415876791.38 6365504#0 6365504#0.12 6365504#0.17 6365504#0.22 6365504#1 6365504#1.47 6365504#2 -23089174 23089172#0 23089172#0.2 23089172#0.23 23089172#0.47 23089172#0.53 23089172#1 23089172#1.5 23089172#2 23089172#2.5 23089172#2.12 23089172#2.16 23089172#3 23089172#4 23089172#5 23089172#5.27 6400775#31 6400775#31.7 6400775#32 6400775#32.41 6400775#33 184876631#0 184876631#1 184876631#2 184876631#3 184876631#4 184876631#5 184876631#6 184876631#7 184876631#7.5 618326398#0 618326398#0.7 618326398#1 618326398#1.16 618326398#2 618326398#3 195433871#0 195433871#1 195433870#1 24054271 24054271.10 24054271.15 24054271.19 21468137 21468137.63 21468137.66 -430174913 -698994083 -698994083.20 -698994083.93 -23089172#13 -23089172#13.7 -23089172#12 -23089172#11 -23089172#10 -23089172#10.58 -227756442#0 -227756442#0.6 184891171 184891171.8 184891171.14 -184891177 -184891166 -22273567#2 -22273567#2.26 -6365504#8 -6365504#8.5 -6365504#7 -6365504#6 -6365504#6.53 -6400775#27 -6400775#27.6 -6400775#26 -6400775#26.2 -6400775#26.21 -22275208#2 -22275208#2.7 -22275208#1 -22275208#1.98 -22275208#0 -22275208#0.9 -22275208#0.117 -22275208#0.123 -22275208#0.126 -168627917 -7990899#2 -7990899#2.27 6341088#0 6341088#0.9 6341088#0.125 6341088#1 6341088#1.6 6341088#1.171 -6400775#24 -6400775#24.7 -6400775#24.73 -6400775#23 -288127321#4 -288127321#3 -430285894 -430285894.21 -430285894.48 -430285894.58 -430285894.70 -430285894.112 -430285894.151 -430285894.190 -22273541#3 -22273541#3.7 -22273541#3.16 -22273541#3.40 -22273541#3.51 -22273541#3.62 -22273541#3.73 6339575#3 6339575#3.7 6339575#3.12 6339575#4 6339575#4.78 -288127321#0 -363370637#7 -363370637#7.92 -363370637#6 -363370637#6.7 -363370637#5 -363370637#4 -21452801#8 -21452801#7 -21452801#6 -21452801#5 -21452801#5.63 -21452801#5.66 -21452801#4 -32618074#6 -32618074#5 -32618074#4 -32618074#4.52 -164658213#3 -164658213#2 -164658213#1 -164658213#0 -164658213#0.113 -32618072#2 -32618072#2.7 -32618072#1 -32618072#0 -32456227#8 -32456227#7 -32456227#6 -32456227#5 -32456227#4 -32456227#3 287012521#0 287012521#1 287012521#1.1 287012521#1.16 287012521#2 287012521#2.4 287012521#2.16 28594451#0 28594451#0.12 28594451#0.25 28594451#1 28594451#1.81 28594451#2 32618070#0 32618070#1 32618070#1.89 22277729#2 22277729#3 36985596 36985597#0 36985597#1 36985597#2 36985597#2.46 36985597#2.74 541337642 541337642.7 187827704#0 187827704#0.39 187827704#0.54 187827704#0.63 187827704#0.83 187827704#0.95 187827704#0.110 187827704#0.122 187827704#0.137 187827704#0.150 187827704#1 187827704#1.7 187827704#1.56 187827704#1.70 187827704#1.82 187827704#1.93 187827704#1.174 187827704#1.180 187827704#1.185 187827704#1.187 541338171#1 541338171#1.7 541338171#1.52 541338171#1.99 541338171#1.141 574377108 574377108.28 574377108.72 574377108.85 574377108.86 -694455409#6 -694455409#6.8 -694455409#6.11 -694455409#6.20 -694455409#6.38 -694455409#5 -694455409#5.10 -694455409#5.23 -694455409#5.42 -694455409#5.118 6402116#0 6402116#0.7 6402116#0.10 6402116#0.16 6402116#0.20 6402116#0.54 6402116#0.162 6402116#0.179 6402116#0.194 6402116#0.209 6402116#0.228 6402116#0.245 6402116#0.264 6402116#0.286 6402116#0.307 6402116#0.326 6402116#0.377 6402116#0.411 6402116#0.433 6402116#1 6402116#1.46 6402116#1.57 6402116#1.69 6402116#1.82 6402116#1.97 6402116#1.112 6402116#1.123 6402116#1.135 6402116#1.161 6402116#1.185 6402116#2 6402116#3 6402116#3.18 6402116#3.33 6402116#3.42 6402116#3.53 6402116#3.68 6402116#3.75 6402116#3.94 6402116#4 6402116#5 6402116#5.14 6402116#5.25 6402116#5.32 6402116#5.50 6402116#5.66 6402116#5.85 6402116#6 6402116#6.11 6402116#6.20 6402116#6.33 6402116#6.43 6402116#6.52 6402116#6.63 6402116#6.79 6402116#7 6402116#7.47 6402116#7.61 6402116#7.73 6402116#8 6402116#8.12 6402116#8.23 6402116#8.37 6402116#8.51 6402116#8.85 6375836#4 6375836#4.22 6375836#4.57 6375836#4.73 6375836#4.90 6375836#5 6375836#5.30 6375836#5.38 6375836#5.46 6375836#5.53 6375836#5.81 6375836#5.93 6375836#5.106 6375836#5.131 6375836#5.148 6375836#5.164 6375836#5.175 6375836#6 6375836#6.3 6375836#6.7 6375836#6.14 6375836#6.27 6375836#6.34 6375836#6.41 6375836#6.52 6375836#6.64 6375836#6.86 6375836#6.96 6375836#6.105 6347422#0 6347422#0.18 6347422#0.27 6347422#0.35 6347422#0.47 6347422#0.61 6347422#0.78 6347422#0.91 6347422#0.125 6347422#0.146 6339933#0 6339933#0.25 6339933#0.40 6339933#0.51 6339933#0.95 6339933#1 -6407092#0 -6407092#0.6 -6407092#0.70 -6407092#0.87 -6407092#0.98 -6407092#0.108 -6407092#0.122 -6407092#0.126 -6407092#0.136 -22374751#4 -22374751#4.3 -22374751#3 -22374751#3.10 -22374751#3.45 -22374751#3.54 -22374751#2 -22374751#2.10 -22374751#2.34 -22374751#2.50 -22374751#2.67 -22374751#2.91 -22374751#2.104 -22374751#2.130 -22374751#1 -22374751#1.7 -22374751#1.16 -22374751#1.24 -22374751#1.35 -22374751#1.44 -22374751#1.56 -22374751#1.83 -22374751#1.88 -22374751#1.93 -22374751#1.100 -22374751#0 -22374751#0.7 -22374751#0.17 -22374751#0.21 -22374751#0.46 -22374751#0.85 -22374751#0.99 -22374751#0.114 -22374751#0.120 -22374751#0.127 -6394300#2 -6394300#2.18 -6394300#2.23 -6394300#2.31 -6394300#2.44 6387635#0 6387635#0.6 6387635#0.22 6387635#0.44 6387635#0.91 6387635#0.101 6387635#0.113 6387635#0.125 6387635#0.157 6387635#0.167 6387635#0.177 6387635#1 6387635#1.5 6387635#2 6387635#2.27 6387635#2.40 -196602724 -196602724.18 -196602724.33 -196602724.86 -196602724.95 -699706143 -699706143.3 -699706143.6 -699706143.11 -699706143.22 -699706143.37 -699706143.49 -699706143.73 -699706143.84 -699706143.95 -699706143.104 -699706143.115 -699706143.125 -699706143.137 -699706143.155 -699706143.197 -699706143.200 -699706143.203 -745180002 -190579786#10 -190579786#10.5 -190579786#10.12 -190579786#10.25 -190579786#9 -190579786#9.9 -190579786#9.18 -190579786#9.29 -190579786#9.79 -190579786#9.88 -190579786#9.97 -190579786#9.105 -190579786#9.113 -190579786#8 -190579786#8.7 -190579786#8.23 -190579786#8.51 -190579786#8.78 -190579786#8.84 -196602722#2 -196602722#2.9 -196602722#2.20 -196602722#2.33 -196602722#2.63 -196602722#2.71 -196602722#2.75 -196602722#2.80 -196602722#2.88 -196602722#2.95 -196602722#2.134 -196602722#2.143 -196602722#2.149 -196602722#2.160 -196602722#1 -196602722#1.18 -196602722#1.31 -196602722#1.54 -196602722#1.70 6394300#0 6394300#0.15 6394300#0.24 6394300#0.41 6394300#0.49 6394300#0.60 6394300#0.72 6394300#0.115 -6379658#7 -6379658#7.10 -6379658#7.23 -6379658#7.32 -6379658#7.39 -6379658#7.48 -6379658#6 -6379658#6.9 -6379658#5 -6379658#5.11 -6379658#5.21 -6379658#5.39 -6379658#5.52 -6379658#4 -6379658#4.26 -6379658#4.38 -6379658#4.50 -6379658#4.61 -6379658#4.94 -6379658#4.102 -6379658#4.113 -6379658#4.121 -6379658#3 -6379658#3.9 -6379658#3.35 -6379658#3.47 -6379658#3.61 -6379658#3.72 -6379658#3.81 -6379658#3.92 -6379658#3.105 -6379658#3.113 -6379658#2 -6379658#1 -6379658#1.28 -6379658#1.37 -6379658#1.49 -6379658#1.62 -6379658#1.75 -6379658#1.92 -6379658#0 -6379658#0.10 -6379658#0.18 -6379658#0.37 -6379658#0.49 -6379658#0.60 -6379658#0.72 -6379658#0.94 -6379658#0.106 -6379658#0.117 -6379658#0.138 -6379658#0.149 -6379658#0.163 -6379658#0.176 6375842#3 6375842#3.9 6375842#3.20 6375842#3.30 6375842#3.40 6375842#3.49 6375842#3.61 6375842#3.72 6375842#4 6375842#4.10 6375842#4.83 6375842#4.95 6375842#4.104 6375842#4.114 6375842#4.140 6375842#4.151 6375842#4.157 -6338076#11 -6338076#11.4 -6338076#11.7 -6338076#11.27 -6338076#11.38 -6338076#11.57 -6338076#11.81 -6338076#10 -6338076#10.12 -6338076#10.39 -6338076#9 6329023#0 6329023#0.7 6329023#0.15 6329023#0.23 6329023#0.38 6329023#0.44 6329023#0.65 6329023#0.76 6329023#0.99 6329023#1 6329023#1.10 6329023#1.18 6329023#1.25 190579799#1 190579799#1.5 190579799#1.15 6359248 6359248.79 -6348426#3 -6348426#3.15 -6348426#2 -6348426#2.32 -6348426#2.44 -6348426#2.56 -6348426#2.76 -6348426#2.97 -6348426#2.106 -6348426#2.115 -11306949#5 -11306949#4 -11306949#4.35 -11306949#2 -11306949#2.13 -11306949#2.27 -11306949#2.40 -11306949#2.50 -11306949#1 -11306949#1.9 -11306949#1.18 -11306949#1.29 -11306949#1.48 -11306949#1.63 -11306949#1.82 -11306949#0 -11306949#0.36 -6335833 -6335833.11 -6340346#1 -6391261 6397410#1 -6395394#1 -6395394#0 -6333513#9 -6333513#8 -6333513#7 -6333513#7.11 -6333513#6 -6333513#6.11 -6333513#6.30 -6333513#6.35 -6333513#5 -6333513#5.21 -6333513#5.38 -6333513#5.54 -6333513#5.75 -6333513#5.93 -6333513#5.107 -6333513#5.123 -6333513#4 -30156401#0 190579811#2 190579811#2.12 190579811#2.14 190579811#2.24 190579811#2.35 190579811#2.46 190579811#2.50 -6335821 -6335821.7 -6335821.14 -6335821.29 -6335821.40 -6335821.51 -6335821.62 -6335821.182 -6335821.188 6331171#3 6331171#3.27 6331171#4 6331171#4.11 6331171#4.24 6331171#4.36 6331171#4.50 6331171#4.67 -6338076#0 -6338076#0.28 -6338076#0.35 -6338076#0.44 -6338076#0.51 -6338076#0.59 -6338076#0.66 -6338076#0.81 -6338076#0.90 -6338076#0.96 -6338076#0.120 -6338076#0.129 -6338076#0.138 -6382510#0 -6382510#0.11 -6382510#0.20 -6382510#0.26 -6382510#0.33 -6382510#0.39 -6339085#7 -6339085#7.29 -6339085#7.47 -6339085#7.68 -6339085#7.87 -6339085#7.110 -6339085#6 -6339085#5 -6339085#5.13 -6339085#5.24 -6339085#5.39 -6339085#4 -6339085#4.58 -6339085#4.92 -6339085#4.103 -6339085#3 -6339085#3.11 -6339085#3.19 -6339085#3.40 -6339085#3.47 -6339085#3.56 -6339085#3.68 -6339085#3.81 -6339085#3.95 -6339085#3.107 -6339085#3.120 -6369249 -6369249.4 -6369249.9 -6369249.43 -6369249.50 -6369249.57 -6369249.64 -6369249.70 -6369249.135 -6369249.142 -6369249.149 -6369249.163 -6369249.174 -190579762#5 -190579762#5.9 -190579762#5.19 -190579762#5.29 -190579762#5.41 -190579762#5.62 -190579762#5.74 -190579762#5.86 -190579762#4 -190579762#3 -190579762#3.10 -190579762#3.21 -190579762#3.33 -190579762#2 -190579762#2.16 -190579762#2.48 -190579762#2.68 -190579762#2.85 -190579762#2.102 -190579762#2.117 -190579762#2.139 -190579762#2.141 -6359553 -6359553.8 -6359553.34 -6359553.42 -6359553.54 -6359553.95 -6359553.106 -6359553.117 -6359553.126 -6359553.137 -6341488#3 -6341488#2 -6341488#1 -6341488#1.8 -6341488#1.15 -6341488#1.22 -6341488#1.29 -6341488#1.35 -6341488#1.41 -6341488#1.48 -6341488#1.56 -6341488#1.123 -6341488#1.134 -6341488#1.145 -6341488#0 -6341488#0.9 -6341488#0.19 -6341488#0.28 -6341488#0.39 -6341488#0.86 -6341488#0.94 190579820 190579820.7 190579803 190579803.140 190579803.149 190579803.157 190579803.166 190579803.175 190579817#0 190579817#0.11 190579817#1 190579817#1.5 190579817#1.14 190579817#1.25 190579817#1.37 190579817#1.55 190579817#1.68 6333513#0 6333513#0.10 6333513#0.40 6333513#0.51 6333513#0.62 6333513#0.73 6407689#0 -11043364#4 6344393 6344393.33 6344393.38 6344393.42 6344393.48 -11043364#2 -11043364#1 -11043364#0 -11043364#0.73 -11043364#0.81 -7857575#1 -7857575#1.27 -7857575#1.57 -7857575#1.75 -7857575#1.83 -7857575#1.99 -7857575#1.115 -7857575#1.152 -7857575#1.166 -7857575#1.179 -7857575#1.219 -7857575#1.229 -7857575#1.268 -7857575#1.290 -7857575#1.315 -7857575#1.332 -7857575#1.343 -7857575#1.361 -7857575#1.378 -7857575#1.390 -7857575#1.402 -7857575#1.416 -7857575#1.443 -7857575#1.452 -7857575#1.462"/>
</vehicle>
<vehicle id = "veh4" type= "veh_passenger" depart="7210" >
<route edges =" -316633577#1 -316633577#0 -797309094#1 -797309094#0 -797309094#0.6 -797309094#0.12 -797309095 -165864174#3 -165864174#2 -165864174#1 24501620#0 24501620#1 785854260#0 785854260#0.69 6398666 6398666.10 6398666.21 6398666.28 6398666.44 6398666.54 6398666.61 6398666.69 6398666.77 6398666.85 6398666.106 435129986 -188703042#5 -188703042#4 -188703042#4.59 6402088#1 6402088#1.8 6402088#1.193 -24620691#3 -24620691#2 -24620691#1 -6338310#3 -6338310#3.7 -34361036#1 -34361036#1.6 -34361036#1.121 -34361036#1.126 -34361036#1.131 -34361036#1.135 -34361036#0 -34361036#0.5 -201989352#2 -201989352#2.8 -201989352#1 -201989352#1.9 -201989352#1.29 -201989352#0 201989358#0 201989358#1 201989358#1.13 201989358#1.90 201989358#2 201989358#2.6 201989358#3 201989358#4 201989358#4.1 201989358#4.6 201989358#4.90 201989358#5 201989358#5.9 201989358#5.78 201989358#5.98 201989358#6 201989358#6.7 201989358#6.21 201989358#7 201989358#7.2 201989358#7.32 -481521358#3 -481521358#3.11 -481521358#2 -6360237 -6360237.240 -37963097#0 -25966411 -25966411.228 -25966411.234 25966412#2 25966412#2.1 25966412#2.3 25966412#2.4 25966412#2.6 25966410 25966410.2 25340073 25340073.6 -34361042 -34361042.8 -34361042.97 -528122494 -528122494.9 -6360234#7 164659478#5 164659478#5.101 6332541#0 6332541#0.7 6332541#1 -24620185#2 -24620185#2.7 -24620185#2.83 -24620185#1 -24620185#1.6 -24620185#1.74 6318448#1 6318448#1.7 6318448#1.198 -195430724#6 -195430724#6.35 -168627934#1 -168627934#1.8 -168627934#0 -168627934#0.7 -7783135#3 -7783135#3.7 -164659473#10 -164659473#10.7 -164659473#9 -164659473#8 -164659473#8.12 -164659473#7 -164659473#7.13 -164659473#6 -164659473#6.16 202317716#13 202317716#13.7 202317716#14 -24024250#6 -24024250#5 -24024250#5.8 6404484 -164659473#3 -164659473#3.63 25316538#4 25316538#4.7 164659438#1 164659438#1.7 164659438#2 164659438#2.44 -202317716#8 -202317716#8.7 -202317716#7 -202317716#6 -202317716#5 -202317716#4 -202317716#3 -202317716#3.20 -202317716#3.88 -202317716#2 -202317716#1 -202317716#1.25 -202317716#1.51 -202317716#0 -574299582#12 -574299582#11 -574299582#10 -574299582#10.22 -574299582#10.72 -574299582#9 -574299582#9.7 -574299582#8 -574299582#8.52 -574299582#8.71 -574299582#7 -164659477#2 -164659477#1 -164659477#0 -164659477#0.133 164659493#2 164659493#2.1 164659493#2.3 164659493#2.5 164659493#2.7 -164659450#1 -164659450#1.3 -164659450#1.87 -23226443#1 -23226443#1.8 -23226443#1.192 164659462#1 164659462#1.7 164659462#1.92 164659509#3 164659509#3.1 164659509#3.3 164659509#3.4 164659509#3.6 -25315987 -25315987.3 25315985 25315985.7 25315985.12 -819364512#6 6401499 25316479 25316479.6 202317700#3 202317700#3.60 25315896#0 25315896#0.27 -198549475#3 -198549475#3.167 421385008#5 421385008#5.7 421385008#6 417696932#0 417696932#0.10 417696932#1 -778470340#6 -778470340#5 -778470340#5.17 -778470340#4 -778470340#3 -778470340#2 -778470340#1 -778470340#0 -778470340#0.10 -778470340#0.19 -416102058 -416102058.7 -202317703#1 -202317703#1.15 -202317703#0 416111293#0 416111293#1 202317699#0 202317699#0.17 202317699#1 202317699#2 202317699#3 819364512#1 819364512#2 819364512#3 819364512#3.68 515885395#1 515885395#1.7 515885395#1.27 515885395#2 515885395#2.13 416111322 416111322.12 23226442 23226442.8 474057088#0 474057088#1 474057090 202317699#9 202317699#10 202317699#10.21 202317699#11 202317699#12 1000720853#0 1000720853#1 1000720853#1.19 1000720853#2 1000720853#3 1000720853#4 1000720853#5 1000720853#6 1000720853#7 1000720853#7.136 164659511#4 164659511#0 164659511#0.1 164659511#0.3 164659511#0.4 164659511#1 164659511#1.1 164659511#1.2 164659511#1.4 164659511#1.5 164659479 164659479.3 164659479.186 164659505#4 164659505#0 164659505#0.1 164659505#0.2 164659505#0.4 164659505#1 164659505#1.1 164659505#1.3 164659505#1.4 164659505#1.6 164659505#2 164659505#2.1 164659505#2.2 164659505#2.4 164659505#2.5 -164659446 -164659446.3 -164659446.87 164659489#1 164659489#1.1 164659489#1.3 164659489#1.4 164659489#1.6 164659481#0 164659481#0.3 164659481#1 164659481#2 164659481#3 -25316538#6 -25316538#6.7 -25316538#6.93 -34811472#3 -34811472#3.7 -34811472#3.66 -34811472#3.122 -34811472#3.194 -34811472#2 -34811472#2.8 -34811472#2.70 -34811472#2.135 -34811472#2.192 -24024251#2 -24024251#2.7 -910274653#0 -930646447 -910274656 -210456949#12 -210456949#12.41 -210456949#11 -210456949#10 32456661#2 32456661#2.7 32456661#3 32456661#3.36 32456661#4 32456661#4.8 32456661#4.92 32456661#5 6332538#7 6332538#7.7 6332538#7.11 6332538#8 6332538#8.10 6332538#8.20 6332538#8.28 6332538#9 6332538#9.23 6332538#10 165864142#0 165864142#1 165864142#2 165864142#3 -25968351#7 -25968351#6 -25968351#6.57 -25968351#5 -25968351#5.187 -25968351#5.190 -25968351#4 -25968351#4.10 -25968351#4.12 -25968351#3 -25968351#2 -26379345#13 -26379345#13.7 -26379345#13.93 -6332538#4 -6332538#4.7 -6332538#4.193 -25968337#12 -25968337#12.7 6384487#9 6384487#9.63 6384487#10 6384487#11 6384487#11.87 -26379345#11 -26379345#11.7 -26379345#11.92 -25968350#1 -25968350#1.7 -25968350#0 -25968350#0.186 25968359#3 25968359#3.1 25968359#3.3 25968359#3.4 25968359#3.6 25968359#3.7 -25968343#1 -25968343#1.2 -25968343#1.86 -25968343#0 -25968343#0.7 -25968343#0.90 25968344#2 25968344#2.1 25968344#2.3 25968344#2.5 25968344#2.6 25968344#3 25968344#3.1 25968344#3.2 25968344#3.4 25968344#3.5 25968344#3.6 -190017518#1 -190017518#1.3 -190017518#1.86 -24028181#5 -24028181#5.8 25968337#7 25968337#8 210456949#6 210456949#7 210456949#7.83 210456949#7.96 210456949#7.112 210456949#7.125 -26379345#9 25968342#3 25968342#3.6 25968342#3.168 -201989365#2 -201989365#2.8 -201989365#2.25 -201989365#2.92 -201989365#1 -201989365#1.10 -201989365#0 -415876797#1 -415876797#1.5 -415876797#0 -999534620#35 -999534620#34 -999534620#34.14 -999534620#33 -999534620#32 -999534620#31 -28076018 -28076018.8 -28076018.29 -28076018.194 -28076018.195 -541351104#2 -541351104#2.7 -541351104#2.8 -541351104#2.10 -541351104#1 -541351104#0 -28076017 -541351105 -541351105.44 -541351105.47 -164659430#3 -164659430#3.8 -164659430#3.92 26379345#2 26379345#2.7 26379345#3 26379345#3.120 26379345#3.122 26379345#4 26379345#4.8 26379345#5 26379345#6 26379345#6.56 -999534620#29 -999534620#29.10 -999534620#28 -999534620#28.82 -999534620#28.85 -999534620#27 -999534620#27.6 -999534620#26 -999534620#26.51 -999534620#26.67 -999534620#26.74 -190017519 -190017519.7 25968341 25968341.18 25968341.56 -999534620#24 -999534620#24.3 -999534620#23 -999534620#23.52 -999534620#23.73 -999534620#22 415870533#0 415870533#1 415870533#1.183 415870533#1.187 164659441#2 164659441#2.7 164659441#2.9 -6356133#2 -6356133#2.8 -6356133#2.193 -6356133#1 -6356133#1.9 -6356133#0 -541349570 -819368215#0 -819368215#0.76 415870533#8 415870533#8.6 415870533#9 415870525#0 415870525#0.13 415870525#1 415870525#2 22370937#0 22370937#1 22370937#2 22370937#3 22370937#3.6 22370937#4 22370937#4.6 22370937#5 22370937#5.11 22370937#6 22370937#7 415870519#0 415870519#1 415870531#0 415870531#1 415870531#1.26 415870531#2 22370936#0 22370936#0.7 22370936#0.14 -6353149 1014203284#2 1014203284#3 1014203284#3.8 1014203284#3.193 1014203284#3.196 24314606#0 24314606#0.4 24314606#0.10 24314606#1 7841698#3 7841698#4 7841698#4.7 7841698#4.8 7841698#5 7841698#5.31 7841698#5.33 7841698#6 7841698#6.7 7841698#6.10 7841698#7 7841698#7.91 7841698#7.92 -23089173#3 -23089173#3.7 -23089173#3.25 -23089173#3.53 -23089173#3.64 -23089173#3.76 -23089173#3.93 -23089173#2 -23089173#2.6 -23089173#2.28 -23089173#2.39 -23089173#2.51 -23089173#2.57 -23089173#2.90 -23089173#2.93 -23089173#1 -23089173#1.7 -23089173#1.34 -23089173#1.39 -23089173#1.46 -23089173#1.58 -23089173#1.64 -23089173#1.71 -23089173#1.81 -23089173#1.94 -23089173#0 -23089173#0.4 -23089173#0.22 -23089173#0.31 -23089173#0.41 -23089173#0.49 -23089173#0.55 -23089173#0.93 -23089173#0.95 -415882499#2 -415882499#2.8 -415882499#2.94 -415882499#1 -415882499#1.7 -415882499#1.89 -415882499#0 -195433868#9 -195433868#8 -195433868#8.3 -195433868#8.84 24164451#5 24164451#5.8 24164451#5.10 24164451#5.192 24314605#4 24314605#4.91 24314605#4.93 363370643#1 363370643#1.7 363370643#1.22 363370643#1.93 -22370936#5 -22370936#5.8 -22370936#5.9 -22370936#4 -22370936#4.87 -30909407#3 -30909407#2 -422792872#3 -422792872#3.7 -6333700#3 -6333700#3.6 -6333700#3.89 -6333700#3.91 -6333700#2 -6333700#2.7 -6333700#2.9 -6336003#3 -6336003#3.7 -6336003#2 -6336003#2.56 6346111#3 6346111#3.91 6346111#3.92 6346111#4 6346111#4.7 6346111#4.9 -422792872#1 -422792872#1.191 -30832687#2 -30832687#2.91 -30832687#2.92 -30832687#1 -30832687#1.7 -30832687#1.9 -30832687#0 -30832687#0.21 -422929506 -422929504 -422929504.11 -422929505#1 -6339229#0 164658838#1 426767275 426767274 -24164436 -24164436.57 -24164436.115 -113629978#3 -113629978#3.7 -113629978#2 -113629978#2.67 -6336821#0 -415803771#2 195595366#4 195595366#5 195595366#6 195595366#7 195595366#8 195595366#8.11 195595366#8.14 7913792#0 7913792#0.7 7913792#0.28 7913792#0.38 7913792#0.46 7913792#1 7913792#1.7 7913792#2 7913792#2.5 7913792#2.11 24164438 24164438.2 24164438.5 24164438.18 24164438.99 6346104#1 6346104#1.6 168627943#2 168627943#4 6333700#0 6333700#0.7 6333700#0.76 6333700#0.90 6333700#0.101 6333700#0.114 6333700#0.130 6333700#0.186 6333700#0.188 6398141#1 6398141#1.7 6398141#1.10 6398141#2 6398141#2.93 -24164451#3 -24164451#3.6 -24164451#3.8 -24164451#3.104 -24164451#2 -24164451#2.59 -24164451#1 -24164451#1.7 -24164451#1.193 6402601#1 6402601#1.92 6402601#2 6402601#2.7 6402601#2.93 -6388365#0 -6388365#0.7 -6388365#0.178 -6388365#0.190 -6388365#0.204 -6388365#0.217 6356111#1 6356111#1.59 6356111#1.61 6356111#1.64 -6378710 -6378710.2 -6378710.5 -6378710.11 -6378710.17 -6378710.33 -6378710.43 -6378710.58 -6378710.70 -6378710.82 -6378710.100 -195595360#1 -195595360#1.30 -195595360#1.63 -195595360#1.84 -195595360#1.111 -195595360#0 -460683945#1 -460683945#0 -460683946#1 -460683946#0 -415884036 -415884036.2 -417526452 -417526452.5 -417526452.27 -417526430 -196750859#2 -196750859#1 -196750859#1.40 6378198#0 6378198#0.13 6378198#0.178 6378198#0.195 6378198#1 6378198#2 6378198#3 6378198#3.3 6378198#4 6378198#4.3 697544433#2 697544433#2.14 6351007#0 6351007#0.29 6351007#0.46 6351007#0.52 6351007#0.56 6351007#0.62 6351007#0.66 6351007#0.72 6351007#0.77 6351007#0.83 6351007#0.89 6351007#0.98 6351007#1 -6332167#0 -6332167#0.10 6386692#3 6386692#3.3 6386692#3.6 6386692#3.9 6338567#0 6338567#0.10 6338567#0.118 6338567#1 6338567#1.107 -6372673#0 -6372673#0.7 -6372673#0.15 -6372673#0.28 -6372673#0.42 -6372673#0.56 -6372673#0.76 -6372673#0.85 -6372673#0.95 -6372673#0.109 -6372673#0.123 -436204253#0 -436204253#0.23 -436204258 -436204258.24 -436204258.31 -436204258.38 -436204258.45 -436204258.52 -436204258.59 -436204257#1 -436204257#1.24 -436204257#1.61 -6374520#5 -6374520#5.44 -6374520#5.63 -6374520#5.83 -6374520#5.96 -6374520#5.105 -6374520#5.115 -6374520#5.137 -6374520#5.239 -6374520#5.253 -6374520#5.266 -6374520#5.279 -6374520#5.291 -6374520#5.307 -6374520#5.326 -6374520#4 -6374520#4.17 -6374520#4.36 6358815#0 6358815#0.15 6358815#0.24 6358815#0.40 6358815#0.45 6358815#0.65 6358815#0.71 6358815#0.77 6358815#0.95 6358815#0.100 -11154779#6 -11154779#6.15 -11154779#6.29 -11154779#6.38 -11154779#6.48 -11154779#6.59 -11154779#6.83 -11154779#6.93 -11154779#5 -11154779#5.12 -11154779#5.18 -11154779#5.25 -11154779#5.104 -11154779#4 -11154779#4.13 -11154779#3 -11154779#3.53 -11154779#3.74 -11154779#3.86 6388487 6388487.8 6388487.19 6388487.28 6388487.38 6388487.49 6388487.71 6388487.82 6388487.90 6388487.103 6388487.114 6388487.127 6388487.139 6388487.150 6388487.249 6388487.253 6388487.259 6388487.262 6388487.266 6388487.308 6388487.320 6388487.327 193256686#9 193256686#9.9 193256686#10 193256686#10.5 193256686#10.16 193256686#10.29 193256686#10.46 193256686#11 193256686#12 193256686#12.27 6347601 6347601.7 6347601.56 6347601.70 6347601.82 6347601.93 6347601.104 6347601.114 6347601.124 6347601.132 6347601.143 6347601.156 6347601.167 6347601.176 6347601.187 6371698#1 6371698#1.51 6371698#1.66 6341488#7 6341488#7.16 6341488#7.39 6341488#7.79 6341488#7.90 6341488#8 6341488#9 6341488#9.74 6341488#9.82 6341488#10 6341488#10.3 6341488#10.13 6341488#10.25 6341488#10.35 6341488#10.48 6341488#10.63 6341488#10.80 6341488#10.93 6341488#10.105 6372213#0 6372213#0.4 6372213#0.9 6372213#0.33 6372213#0.57 6372213#0.86 6372213#1 6372213#1.9 6372213#1.21 6372213#1.68 6372213#1.81 6372213#1.88 6372213#1.98 6372213#1.111 6369262#1 6369262#1.18 6369262#1.31 6369262#1.47 6369262#1.71 -190579762#6 -190579762#6.13 -190579762#6.17 -190579762#6.26 6369249 6369249.10 6369249.21 6369249.36 6369249.43 6369249.50 6369249.115 6369249.121 6369249.128 6369249.135 6369249.142 6369249.176 6369249.181 6339085#3 6339085#3.21 6339085#3.34 6339085#3.46 6339085#3.60 6339085#3.73 6339085#3.86 6339085#3.95 6339085#3.101 6339085#3.122 6339085#3.131 6339085#4 6339085#4.9 6339085#4.19 6339085#4.53 6338567#11 6338567#12 30156401#0 -6333513#3 -6333513#3.137 -11043363#3 -11043363#3.7 -11043363#2 -11043363#1 -11043363#0 7857575#0 7857575#0.10 7857575#0.24 7857575#0.39 7857575#0.57 7857575#0.75 7857575#0.88 7857575#0.126 7857575#0.144 7857575#0.146 7857575#0.162 7857575#0.184 7857575#0.212 7857575#0.218 7857575#0.224 7857575#0.229 7857575#0.241 7857575#0.275 7857575#0.303 7857575#0.315 7857575#0.324 7857575#0.326 7857575#0.339 7857575#0.350 7857575#0.357 7857575#0.360 7857575#0.410 7857575#1 7857575#1.42 7857575#1.66 7857575#1.85"/>
</vehicle>
<vehicle id = "veh5" type= "veh_passenger" depart="7210" >
<route edges =" 797309093 797309091#0 797309091#0.10 797309091#1 797309091#1.7 797309091#2 797309091#2.10 797309091#2.15 797309091#3 377635148 377635148.3 377635148.5 377635149#0 377635149#0.19 377635149#0.28 377635149#0.40 377635149#0.54 377635149#1 377635149#1.77 6348380#2 6348380#2.74 6348380#2.87 6348380#2.97 6333080 6333080.6 6346195#1 6346195#1.16 6346195#1.26 6346195#1.36 6346195#1.46 6346195#1.55 6346195#1.62 6346195#1.72 6346195#1.80 6346195#1.89 6346195#1.98 6346195#1.109 6346195#1.118 6346195#1.136 6346195#1.152 437142998 184924125#0 184924125#1 184924125#1.14 184924125#1.70 184924125#1.93 184924125#1.122 184924125#1.145 184924125#1.162 184924125#1.179 184924125#1.196 184924125#1.208 10389874 437142991 437142991.30 437143005#0 437143005#0.19 437143005#0.31 437143005#0.52 437143005#0.61 437143005#0.69 437143005#0.81 437143005#0.144 437143005#1 437143005#1.10 437143005#1.47 437143005#1.65 437143005#2 437143005#2.14 437143005#3 437143005#3.37 437143005#3.48 437143005#4 437143005#4.7 437143005#4.13 437143005#4.23 437143005#4.33 437143005#4.45 437143005#4.57 437143005#4.72 437143005#4.86 437143005#4.103 437143005#4.115 437143005#4.172 437143000 -6359476#3 -6359476#3.12 -6359476#3.19 -6359476#3.60 -6359476#3.73 -6359476#3.84 -6359476#3.95 -6359476#3.111 -6359476#3.131 -6359476#3.156 -6359476#3.181 -6359476#3.208 -6359476#3.228 -6359476#3.248 -6359476#2 -6359476#1 6340413 6340413.12 6340413.132 6340413.144 6340413.154 6340413.186 6340413.193 6340413.206 6340413.217 6340413.230 6340413.239 6340417 6340417.9 6340417.18 6340417.28 6340417.48 -437142994 -437142994.7 -437142994.15 -437142994.36 -437142994.47 -437142994.59 -437142994.71 -437142994.80 -6359479 -6359479.10 -6359479.23 -6359479.62 -6359479.80 -6359479.96 -6359479.107 -6359479.119 -6359479.154 -6359479.163 -6359479.171 -6359479.179 -6359479.181 -785854260#9 -164659487 -164659487.11 -164659487.36 -164659487.49 -164659487.62 -164659487.77 -164659487.195 -164659487.212 -164659487.230 -164659487.246 164659503#2 164659503#2.0 164659503#2.1 164659503#2.2 164659503#2.3 164659503#2.4 164659503#2.5 164659503#2.6 164659503#2.7 164659503#2.8 164659503#2.9 164659503#2.10 164659503#2.11 -37963097#4 -37963097#4.3 -37963097#3 -37963097#3.82 -201989358#5 -201989358#5.8 -201989358#5.28 -201989358#5.97 -201989358#4 -201989358#4.8 -201989358#4.92 -201989358#4.97 -201989358#3 -201989358#2 -201989358#2.18 -201989358#1 -201989358#1.6 -201989358#1.82 -201989358#0 -195430724#15 -195430724#14 -195430724#14.20 -195430724#13 -195430724#13.78 10585275#1 10585275#1.9 10585275#2 -6357225 -6357225.7 -6332541#0 -6332541#0.83 -164659478#5 -164659478#5.7 6360234#7 -164659477#8 -164659477#8.7 -164659477#7 -164659477#7.9 -164659477#7.96 6344564#0 6344564#0.8 6344564#0.11 6344564#0.19 6344564#0.30 6344564#0.41 6344564#1 6344564#2 6344564#2.19 6344564#2.21 -34815545#0 -34815545#0.7 -34815545#0.26 -416102056#1 -416102056#0 -516590552 -416102055 -202317702#2 -202317702#1 -202317702#1.6 -202317702#0 742663482#0 742663482#1 742663482#2 742663482#2.7 742663482#3 742663482#4 574299582#0 574299582#1 574299582#2 574299582#2.15 -6388344 -6388344.12 -164659449#0 -164659449#0.48 164659493#1 164659493#1.1 164659493#1.3 164659493#1.4 164659493#1.6 164659477#0 164659477#0.3 164659477#1 164659477#2 574299582#7 574299582#8 574299582#8.4 574299582#8.23 574299582#9 574299582#9.13 574299582#10 574299582#10.7 574299582#10.56 574299582#11 574299582#12 164659478#0 164659478#1 164659478#2 164659478#2.41 164659478#2.70 164659478#2.127 164659478#3 164659478#3.7 -6362542#1 -6362542#1.7 -6362542#0 -6362542#0.104 168627934#0 168627934#0.97 -6360234#5 -6360234#5.7 -6360234#5.16 -6360234#4 -164659473#11 -7783135#2 -7783135#2.7 -7783135#1 -7783135#0 -7783135#0.101 43256415 43256415.22 -6345181#8 -6345181#8.4 -6345181#8.7 -6345181#8.93 541334899#0 541334899#0.7 541334899#1 541334899#2 541334899#3 541334899#4 541334899#5 541334786#0 541334786#1 541334786#1.21 541334786#2 -698994093#10 -698994093#9 -698994093#8 -698994093#8.7 -698994093#7 -698994093#7.11 -698994093#6 -698994093#5 -698994093#5.50 196779223#4 196779223#4.7 196779223#4.89 196779223#5 541334900#4 541334900#5 541334900#6 541334900#7 541334900#8 -6371277 -6371277.7 -6371277.92 27877606#6 27877606#7 27877606#7.53 6348015 6348015.7 761330890 761330889#0 761330889#1 761330889#2 761330889#3 761330889#3.83 761330889#4 517593873#2 517593873#2.29 517593873#3 415876778 196779219#0 196779219#1 196779219#2 196779219#3 30833030#0 30833030#1 30833030#1.19 196779231#0 196779231#0.12 196779231#1 196779231#1.17 21452694#0 21452694#0.5 21452694#0.7 21452694#0.9 21452694#0.14 21452694#0.21 21452694#0.27 21452694#0.101 21452694#1 21452694#1.9 21452694#1.14 21452694#1.27 21452694#2 415878130#0 415878130#1 415878131#0 415878131#1 682209186 196779232 196779232.9 415878126 415878126.6 415878137#0 415878137#1 22372598#1 22372598#2 22372598#3 -6391592#1 -6391592#1.7 -6391592#0 -6391592#0.14 781008559#0 781008559#1 781008559#2 781008559#3 202177316#0 202177316#1 202177316#2 415878127 415878127.3 415878136#0 415878136#1 -417694700#1 -417694700#0 -417694700#0.27 -21452801#14 -21452801#14.52 -21452801#14.110 -21452801#13 -21452801#13.45 -21452801#13.82 -21452801#13.88 -24314605#15 -24314605#15.6 -24314605#15.8 -164658213#7 -164658213#6 -164658213#6.156 -164658213#5 -164658213#5.7 -164658213#4 -164658213#4.36 -164658213#3 -164658213#2 -164658213#1 -164658213#0 -164658213#0.113 -36985595#2 -36985595#2.8 -36985595#2.116 -36985595#2.205 -36985595#1 -36985595#0 -36985594 -22278229#3 -22278229#2 -22278229#1 -22278229#0 -22278229#0.17 -22278230 -22278230.7 -22278230.40 22278231 22278231.9 22278231.16 22278231.25 22278231.54 -22278226 -22278226.9 -22278226.55 -6391580#1 -6391580#1.7 -6391580#1.137 -6391580#1.151 -6391580#1.169 -6391580#1.181 -6391580#0 -6391580#0.16 -6391580#0.30 -6391580#0.45 -6391580#0.58 -6391580#0.69 -6391580#0.71 187827704#1 187827704#1.7 187827704#1.56 187827704#1.70 187827704#1.82 187827704#1.93 187827704#1.174 187827704#1.180 187827704#1.185 187827704#1.187 541338171#1 541338171#1.7 541338171#1.52 541338171#1.99 541338171#1.141 574377108 574377108.28 574377108.72 574377108.85 574377108.86 -694455409#6 -694455409#6.8 -694455409#6.11 -694455409#6.20 -694455409#6.38 -694455409#5 -694455409#5.10 -694455409#5.23 -694455409#5.42 -694455409#5.118 -694455409#4 -694455409#4.29 -6384655 -6384655.8 -6384655.11 -6384655.19 -6384655.30 -6384655.40 -6384655.55 -6384655.73 -6384655.88 -6384655.109 -6384655.134 -6384655.150 -6384655.167 -6384655.183 -6384655.196 -6384655.214 -6384655.227 -6384655.239 6338567#3 6338567#3.80 6338567#4 6338567#4.78 694455409#0 694455409#0.5 694455409#0.16 694455409#0.20 694455409#0.56 694455409#0.66 694455409#0.76 694455409#0.87 694455409#0.98 694455409#0.109 694455409#1 694455409#1.9 6368567 6368567.8 6368567.16 6368567.22 6368567.89 6368567.99 6368567.108 6368567.118 6368567.132 6368567.141 6368567.149 6368567.159 -6341488#14 -6341488#14.8 -6341488#14.20 -6341488#14.36 -6341488#14.51 -6341488#14.67 -6341488#14.105 -6341488#14.115 -6341488#14.127 -6341488#13 -6341488#13.6 -6341488#13.35 -6341488#13.61 -6341488#13.81 -6341488#13.101 -6341488#13.124 -6341488#13.176 6338567#6 6336095#2 6336095#2.8 6336095#2.26 6336095#2.155 -190579762#10 -190579762#10.15 -190579762#10.28 -190579762#10.45 -190579762#9 -190579762#9.17 -190579762#9.29 -190579762#9.42 -190579762#9.56 -190579762#9.71 -190579762#9.81 6338567#8 6338567#8.11 6338567#9 6338567#10 6339085#5 6339085#5.26 6339085#5.42 6339085#5.53 6335820 6335820.8 6335820.17 6335820.61 6335820.74 6335820.81 6335820.90 6335820.96 6335820.103 6335820.110 6335820.134 6335820.141 6331171#2 6331171#2.20 6331171#2.38 6331171#2.59 6335821 6335821.6 6335821.12 6335821.132 6335821.143 6335821.154 6335821.165 6335821.179 6335821.187 190579811#3 190579811#3.9 190579811#3.19 190579811#3.32 190579811#3.45 190579811#3.54 190579811#3.64 6335822 6335822.10 6335822.17 6335822.26 6335822.39 6335822.54 6335822.85 6335822.97 6335822.106 -6333513#4 -30156401#0 -190579811#1 -190579811#1.12 -190579811#1.20 -190579811#1.36 -190579811#1.50 -190579811#1.69 -190579811#1.82 -190579811#1.101 -190579811#1.120 -190579811#1.121 -11043363#4 -11043363#4.9 -11043363#4.16 -11043363#4.34 -11043363#4.41 -6333513#2 -6333513#2.6 -6333513#2.121 -6333513#2.154 -6333513#2.202 -6333513#1 -6333513#1.49 -6333513#1.73 -6333513#1.92 -6333513#1.110 -6333513#1.168 -6333513#1.177 -6333513#1.186 -6333513#1.196 6407689#0 6407689#1 6407689#1.22 6407689#1.35 6407689#1.53 6407689#1.68 6407689#1.82 -6352134#2 -6352134#2.15 -6352134#2.29 -6352134#2.47 -6352134#2.62 -6352134#2.110 -6352134#1 -6352134#0 -6352134#0.20 -6352134#0.39 -6352134#0.53 -6352134#0.63 -6352134#0.79 -11043364#1 -11043364#0 -11043364#0.73 -11043364#0.81 -7857575#1 -7857575#1.27 -7857575#1.57 -7857575#1.75 -7857575#1.83 -7857575#1.99 -7857575#1.115 -7857575#1.152 -7857575#1.166 -7857575#1.179 -7857575#1.219 -7857575#1.229 -7857575#1.268 -7857575#1.290 -7857575#1.315 -7857575#1.332 -7857575#1.343 -7857575#1.361 -7857575#1.378 -7857575#1.390 -7857575#1.402 -7857575#1.416 -7857575#1.443 -7857575#1.452 -7857575#1.462"/>
</vehicle>
<vehicle id = "veh6" type= "veh_passenger" depart="10815" >
<route edges =" 797309093 797309091#0 797309091#0.10 797309091#1 797309091#1.7 797309091#2 797309091#2.10 797309091#2.15 797309091#3 377635148 377635148.3 377635148.5 -437142992 -437142992.6 -6329160 -6329160.124 -6329160.133 785854260#3 785854260#3.11 785854260#3.30 -763290363 -763290363.11 -24620691#4 -24620691#3 -24620691#2 -24620691#1 -24620691#0 24620690 24620690.5 -24620688 24620689#0 24620689#0.6 24620689#1 24620689#1.9 -201989358#2 -201989358#2.18 -25340074 -25340074.8 -25340074.86 -34361042 -34361042.8 -34361042.97 34361041#0 34361041#0.7 34361041#1 -195430724#15 -195430724#14 -195430724#14.20 -195430724#13 -195430724#13.78 10585275#1 10585275#1.9 10585275#2 10585275#3 10585275#3.7 10585275#3.83 -7795936#1 -7795936#1.3 -7795936#0 -7795936#0.137 -6332541#1 -6332541#0 -6332541#0.83 -164659478#5 -164659478#5.7 -6360234#6 -6360234#6.186 -6360234#6.194 -168627934#0 -168627934#0.7 -34811472#12 -34811472#12.8 -34811472#11 -34811472#10 -7783131#4 -7783131#4.7 -7783131#3 -7783131#2 -7783131#1 -7783131#0 -7783131#0.55 196779228#3 196779228#4 196779228#5 196779228#6 196779228#6.35 43256415 43256415.22 -6345181#8 -6345181#8.4 -6345181#8.7 -6345181#8.93 541334899#0 541334899#0.7 541334899#1 541334899#2 541334899#3 541334899#4 541334899#5 541334786#0 541334786#1 541334786#1.21 541334786#2 -698994093#10 -698994093#9 -698994093#8 -698994093#8.7 -698994093#7 -698994093#7.11 -698994093#6 -698994093#5 -698994093#5.50 -698994093#4 -698994093#4.7 -698994093#3 -698994093#2 -698994093#1 -698994093#0 -698994093#0.12 -698994093#0.22 6348015 6348015.7 761330890 761330889#0 761330889#1 761330889#2 761330889#3 761330889#3.83 761330889#4 517593873#2 517593873#2.29 517593873#3 415876778 196779219#0 196779219#1 196779219#2 196779219#3 30833030#0 30833030#1 30833030#1.19 196779231#0 196779231#0.12 196779231#1 196779231#1.17 21452694#0 21452694#0.5 21452694#0.7 21452694#0.9 21452694#0.14 21452694#0.21 21452694#0.27 21452694#0.101 21452694#1 21452694#1.9 21452694#1.14 21452694#1.27 21452694#2 415878130#0 415878130#1 415878131#0 415878131#1 682209186 196779232 196779232.9 415878126 415878126.6 415878137#0 415878137#1 194859188#0 194859188#1 194859188#1.24 415878134#0 415878134#1 202177316#0 202177316#1 202177316#2 415878127 415878127.3 415878136#0 415878136#1 -417694700#1 -417694700#0 -417694700#0.27 -21452801#14 -21452801#14.52 -21452801#14.110 -21452801#13 -21452801#13.45 -21452801#13.82 -21452801#13.88 24314605#16 24314605#16.7 24314605#16.11 24314605#16.82 24314605#16.86 -168627975 -168627975.12 -168627975.22 -168627975.32 -168627975.40 22273558 22273558.11 22273558.17 22273558.33 22273558.45 22273558.58 22273558.66 22273558.77 22273558.85 22273558.92 22273558.103 22273558.113 22273558.118 -7990899#2 -7990899#2.27 -7990899#1 -7990899#0 -7990899#0.77 288127321#0 -6339575#4 -6339575#4.7 -6339575#3 -6339575#3.102 -6339575#3.107 -22273541#2 -22273541#2.12 -22273541#2.93 -22273541#2.95 -6400722#5 -6400722#5.7 -6400722#5.8 -6400722#4 -6400722#3 -6400722#2 -22278233#1 -22278233#0 -22278233#0.43 -193256683#1 -193256683#1.8 -193256683#0 -36985599#3 -36985599#2 -36985599#2.120 -36985599#2.132 -36985599#2.140 -36985599#2.155 -36985599#2.166 -36985599#1 -36985599#1.11 -36985599#1.17 -36985599#0 -36985598 -6372698#3 -6372698#3.4 -6372698#2 -6372698#2.9 -6372698#2.152 -6372698#1 -6372698#1.6 -6372698#1.163 -6372698#1.180 -6372698#1.188 -6372698#1.196 -6372698#1.218 -6372698#0 -6372698#0.10 -6372698#0.23 -6372698#0.36 -6372698#0.49 -6372698#0.65 -6372698#0.80 -6372698#0.94 -6372698#0.109 -6372698#0.117 -541338171#1 -541338171#1.9 -541338171#1.51 -541338171#1.98 -541338171#1.143 187827704#2 187827704#2.7 187827704#2.15 187827704#2.33 187827704#2.51 187827704#2.70 187827704#2.88 187827704#2.107 187827704#2.123 187827704#2.139 187827704#2.159 187827704#2.236 187827704#2.255 187827704#2.270 187827704#2.279 6338567#1 6338567#1.107 6338567#2 6338567#3 6338567#3.80 6338567#4 6338567#4.78 6338567#5 6338567#5.8 -6341488#12 -6341488#12.15 -6341488#12.26 -6341488#12.42 -6341488#12.55 -6341488#12.74 -6341488#11 -6341488#11.22 -6341488#11.37 -6341488#11.49 6372213#0 6372213#0.4 6372213#0.9 6372213#0.33 6372213#0.57 6372213#0.86 6372213#1 6372213#1.9 6372213#1.21 6372213#1.68 6372213#1.81 6372213#1.88 6372213#1.98 6372213#1.111 6369262#1 6369262#1.18 6369262#1.31 6369262#1.47 6369262#1.71 -190579762#6 -190579762#6.13 -190579762#6.17 -190579762#6.26 6369249 6369249.10 6369249.21 6369249.36 6369249.43 6369249.50 6369249.115 6369249.121 6369249.128 6369249.135 6369249.142 6369249.176 6369249.181 -6339085#2 -6339085#2.14 -6339085#2.26 -6339085#2.37 -6339085#2.49 -6339085#2.63 -6339085#2.115 -6339085#2.125 -6339085#2.140 -6339085#1 -6339085#0 -6339085#0.12 -6339085#0.27 -6339085#0.45 -6339085#0.77 -6339085#0.87 -6339085#0.98 -6339085#0.119 -6339085#0.129 -190579779#0 -190579779#0.109 -190579779#0.117 6333513#0 6333513#0.10 6333513#0.40 6333513#0.51 6333513#0.62 6333513#0.73 6407689#0 -11043364#4 -11043364#3 -11043364#2 -11043364#1 -11043364#0 -11043364#0.73 -11043364#0.81 -7857575#1 -7857575#1.27 -7857575#1.57 -7857575#1.75 -7857575#1.83 -7857575#1.99 -7857575#1.115 -7857575#1.152 -7857575#1.166 -7857575#1.179 -7857575#1.219 -7857575#1.229 -7857575#1.268 -7857575#1.290 -7857575#1.315 -7857575#1.332 -7857575#1.343 -7857575#1.361 -7857575#1.378 -7857575#1.390 -7857575#1.402 -7857575#1.416 -7857575#1.443 -7857575#1.452 -7857575#1.462"/>
</vehicle>
<vehicle id = "veh7" type= "veh_passenger" depart="10815" >
<route edges =" -316633577#1 -316633577#0 -6340080#2 -6340080#1 -6340080#0 -6340080#0.27 -201989373 -201989373.4 -201989373.9 -201989373.42 678979330 678979330.18 24620199 24620199.9 24620199.11 -6405162#1 -6405162#1.8 -6405162#1.26 -6405162#1.79 -6405162#0 -6405162#0.9 -6405162#0.41 -6405162#0.58 -6405162#0.69 -6405162#0.78 -6405162#0.84 -6405162#0.90 -6356253 -6356253.9 -6356253.18 -6356253.25 -6356253.32 -6356253.183 -6356253.191 -6356253.193 -201989360#2 -201989360#2.6 -201989360#2.14 -201989360#1 -201989360#1.34 -201989360#0 -201989360#0.20 -201989360#0.24 -656030857 -656030854 24620194 24620194.9 24620194.16 24620194.19 -698994088#2 -698994088#1 -698994088#1.18 -698994088#0 -698994088#0.76 -698994089#1 -698994089#1.4 -24620180 -24620180.9 -24620180.11 -24620180.92 -24620180.94 -24620180.96 24620182 24620182.2 24620182.6 24620182.11 24620182.187 24620182.191 24620182.193 -6369662#1 -6369662#1.2 -6369662#1.4 -6369662#1.8 -6382818#1 -6382818#0 -6382818#0.169 43256407#4 43256407#4.88 43256407#4.93 43256407#5 43256407#6 21459815#0 21459815#1 21459815#2 21459815#2.8 -311941950#2 -311941950#2.7 -311941950#1 -311941950#1.61 -698994086 -698994086.6 -7781341#2 -7781341#1 -7781341#0 -7781341#0.21 -7781341#0.24 360736209#1 360736209#1.2 360736209#1.5 360736209#1.7 360736209#1.10 360736209#1.13 360736209#1.15 618175146 618175146.5 618175146.15 618175146.26 618175146.42 618175146.57 618175146.79 618175146.81 24620174 24620174.24 24620174.37 24620174.46 659099712#0 659099712#0.28 659099712#0.35 659099712#1 659099712#2 201989371#0 201989371#1 201989371#1.4 201989371#1.20 201989371#2 201989371#2.4 201989371#2.24 201989371#2.80 201989371#2.102 201989371#2.113 201989371#2.143 201989371#2.151 201989371#2.158 201989371#2.159 201989371#3 201989371#4 201989371#4.9 201989371#4.13 201989371#4.22 -6338294#1 -6338294#0 -6338294#0.13 -6338294#0.33 -6338294#0.79 -6338294#0.94 -6338294#0.100 -6377274#2 -6377274#2.14 -6377274#2.19 -6377274#2.20 -6377274#2.34 -6377274#2.36 -6377274#2.56 -6377274#2.83 -6377274#1 -6377274#1.17 -6377274#1.27 -6377274#0 -6377274#0.5 698805191#0 698805191#0.5 698805191#1 698805191#2 698805190 698805190.31 -517583963#3 -517583963#3.30 -517583963#2 -517583963#2.22 -517583963#1 -517583963#1.13 -517583963#1.28 -517583963#1.48 -517583963#0 -517583963#0.2 -517583963#0.16 -517583963#0.29 -195433870#1 -195433871#1 -195433871#0 -618326398#3 -618326398#2 -618326398#1 -618326398#1.45 -618326398#0 -618326398#0.5 -227756442#2 -227756442#2.6 -227756442#1 -227756442#1.24 -227756442#0 -227756442#0.6 184891171 184891171.8 184891171.14 -184891177 -184891166 -22273567#2 -22273567#2.26 -6365504#8 -6365504#8.5 -6365504#7 -6365504#6 -6365504#6.53 -6400775#27 -6400775#27.6 -6400775#26 -6400775#26.2 -6400775#26.21 37060496#0 37060496#0.7 37060496#1 37060496#2 188283054 188283054.9 -23873746#1 -23873746#0 -23873746#0.3 -23873746#0.43 -22273549 -22273549.7 -22273549.14 -22273549.19 -22273549.30 -430161670#1 -430161670#1.7 -430161670#0 -6341088#3 -6341088#2 -6341088#2.155 -6400775#24 -6400775#24.7 -6400775#24.73 -6400775#23 -6400775#22 -6400775#21 -6400775#21.9 -6400775#21.26 -6400775#21.31 -6400775#21.41 -6400775#20 -6400775#20.16 430285892 430285892.5 430285892.7 430285892.18 430285892.32 430285892.49 430285892.74 430285892.89 6347181#0 6347181#0.76 6347181#1 6347181#1.8 6347181#1.90 6347181#2 6347181#2.5 6347181#2.11 6347181#2.17 6347181#2.24 -6354995#5 -6354995#5.6 -6354995#5.11 -6354995#5.18 -6354995#5.24 -6354995#5.36 -6354995#4 -6354995#3 -6354995#3.10 -6354995#2 -6354995#1 -6354995#0 -515660885#0 -515660885#0.50 -6347543 -6347543.5 -6347543.11 -6347543.53 -6347543.61 430174922#0 430174922#0.8 430174922#0.16 430174922#1 430174922#1.3 430174922#1.13 430174922#1.30 430174922#1.48 430174922#1.62 6329145#0 6329145#1 6329145#1.0 6329145#1.10 6329145#1.33 6329145#1.46 6329145#1.58 6329145#1.67 6329145#2 -6400775#16 -6400775#15 -6400775#15.27 -6400775#15.60 -6400775#15.68 -6400775#15.72 -6400775#15.75 -6400775#14 -6400775#13 -6400775#13.4 -6400775#12 -6400775#11 -6400775#10 -6400775#10.91 -6400775#10.107 -6400775#9 -6400775#9.3 -6400775#8 -6400775#8.2 -6400775#7 -6400775#7.19 -6400775#7.34 -6400775#7.49 -6400775#7.64 -6400775#7.76 -6400775#6 -6400775#6.34 -6400775#5 -6400775#5.24 -6400775#5.53 -6400775#5.72 -6400775#5.79 -6400775#5.83 -6400775#5.99 -6400775#4 -6400775#3 -6400775#3.15 -6400775#3.35 -6400775#3.44 -6400775#3.53 -6400775#3.63 -6400775#3.76 -6400775#3.90 -6400775#3.101 -6400775#3.112 -6400775#3.121 -6400775#2 -6400775#2.9 -6400775#2.16 -6400775#2.23 -6400775#2.29 -6400775#1 -6400775#1.10 -6400775#1.28 -6400775#1.38 -6400775#1.49 -6400775#1.59 -6400775#0 -6400775#0.3 -6400775#0.8 24221419#0 24221419#0.12 24221419#0.22 24221419#0.35 24221419#0.47 24221419#1 24221419#1.10 24221419#2 24221419#2.4 24221419#2.15 24221419#2.26 24221419#2.38 24221419#2.49 24221419#3 24221419#4 24221419#4.8 24221419#4.15 24221419#4.24 24221419#4.32 24221419#4.41 24221419#4.49 24221419#4.57 24221419#4.69 24221419#4.82 24221419#4.94 24221419#4.100 24221419#4.109 24221419#4.119 24221419#4.127 24221419#5 24221419#5.9 24221419#5.16 24221419#5.22 24221419#5.29 -190579762#18 -190579762#18.4 -190579762#18.5 -190579762#18.14 -190579762#18.28 -190579762#18.50 -190579762#18.74 -190579762#17 -190579762#17.47 -190579762#16 -190579762#16.8 -190579762#16.11 -190579762#16.26 -190579762#16.39 -190579762#16.53 -190579762#16.67 -190579762#16.88 -190579762#16.106 -190579762#16.127 -190579762#15 -190579762#14 -190579762#13 -190579762#13.2 -190579762#13.22 -190579762#12 -190579762#12.22 -190579762#11 -190579762#11.4 -190579762#11.17 -190579762#11.28 -190579762#11.40 -190579762#11.52 -190579762#11.98 -190579762#11.111 -190579762#11.126 -190579762#11.141 -190579762#11.146 -190579762#11.153 -190579762#11.157 -190579762#10 -190579762#10.15 -190579762#10.28 -190579762#10.45 -190579762#9 -190579762#9.17 -190579762#9.29 -190579762#9.42 -190579762#9.56 -190579762#9.71 -190579762#9.81 6338567#8 6338567#8.11 6338567#9 6338567#10 6338567#11 6338567#12 -190579811#1 -190579811#1.12 -190579811#1.20 -190579811#1.36 -190579811#1.50 -190579811#1.69 -190579811#1.82 -190579811#1.101 -190579811#1.120 -190579811#1.121 -11043363#4 -11043363#4.9 -11043363#4.16 -11043363#4.34 -11043363#4.41 -11043363#3 -11043363#3.7 -11043363#2 -11043363#1 -11043363#0 7857575#0 7857575#0.10 7857575#0.24 7857575#0.39 7857575#0.57 7857575#0.75 7857575#0.88 7857575#0.126 7857575#0.144 7857575#0.146 7857575#0.162 7857575#0.184 7857575#0.212 7857575#0.218 7857575#0.224 7857575#0.229 7857575#0.241 7857575#0.275 7857575#0.303 7857575#0.315 7857575#0.324 7857575#0.326 7857575#0.339 7857575#0.350 7857575#0.357 7857575#0.360 7857575#0.410 7857575#1 7857575#1.42 7857575#1.66 7857575#1.85"/>
</vehicle>
<vehicle id = "veh8" type= "veh_passenger" depart="14420" >
<route edges =" 797309093 797309091#0 797309091#0.10 797309091#1 797309091#1.7 797309091#2 797309091#2.10 797309091#2.15 797309091#3 377635148 377635148.3 377635148.5 -437142992 -437142992.6 -6329160 -6329160.124 -6329160.133 785854260#3 785854260#3.11 785854260#3.30 785854260#4 785854260#4.14 785854260#4.73 785854260#5 785854260#6 785854260#6.20 785854260#6.77 785854260#7 785854260#8 785854260#8.8 785854260#8.45 -164659487 -164659487.11 -164659487.36 -164659487.49 -164659487.62 -164659487.77 -164659487.195 -164659487.212 -164659487.230 -164659487.246 164659503#2 164659503#2.0 164659503#2.1 164659503#2.2 164659503#2.3 164659503#2.4 164659503#2.5 164659503#2.6 164659503#2.7 164659503#2.8 164659503#2.9 164659503#2.10 164659503#2.11 -37963097#4 -37963097#4.3 -37963097#3 -37963097#3.82 -37963097#2 -37963097#2.8 -37963097#0 -25966411 -25966411.228 -25966411.234 25966412#2 25966412#2.1 25966412#2.3 25966412#2.4 25966412#2.6 25966412#3 25966412#3.1 25966412#3.2 25966412#3.4 25966412#3.5 25966412#3.6 -770011482 -770011482.3 -770011482.12 -770011482.20 -770011482.29 -770011482.43 -770011482.57 -770011482.67 -770011482.80 -770011482.96 528122493#0 528122493#1 528122493#2 528122493#2.28 34361041#0 34361041#0.7 34361041#1 -195430724#15 -195430724#14 -195430724#14.20 -195430724#13 -195430724#13.78 10585275#1 10585275#1.9 10585275#2 10585275#3 10585275#3.7 10585275#3.83 -7795936#1 -7795936#1.3 -7795936#0 -7795936#0.137 -6332541#1 -6332541#0 -6332541#0.83 -164659478#5 -164659478#5.7 -6360234#6 -6360234#6.186 -6360234#6.194 -6360234#5 -6360234#5.7 -6360234#5.16 -6360234#4 -164659473#11 -164659473#10 -164659473#10.7 -7783131#2 -7783131#1 -7783131#0 -7783131#0.55 196779228#3 196779228#4 196779228#5 196779228#6 196779228#6.35 43256415 43256415.22 416106321#0 416106321#1 416106321#2 416106321#3 416106320#0 416106320#1 -698994081#5 -698994081#4 -698994081#3 -698994081#2 -698994081#1 -698994081#0 -698796634#2 -698796634#1 -698796634#1.7 -698796634#1.12 -698796634#0 -541335494#11 -541335494#10 -541335494#10.2 -541335494#10.3 -541335494#9 -541335494#8 -541335494#7 -541335494#6 -541335494#5 -541335494#4 -541335494#4.39 -541335494#3 -541335494#3.6 -541335494#3.15 -541335494#2 -541335494#1 -541335494#0 -698994093#10 -698994093#9 -698994093#8 -698994093#8.7 -698994093#7 -698994093#7.11 -698994093#6 -698994093#5 -698994093#5.50 196779223#4 196779223#4.7 196779223#4.89 196779223#5 541334900#4 541334900#5 541334900#6 698994092#3 698994092#4 698994092#4.84 6348015 6348015.7 761330890 761330889#0 761330889#1 761330889#2 761330889#3 761330889#3.83 761330889#4 517593873#2 517593873#2.29 517593873#3 415876778 22278225#0 22278225#0.24 22278225#1 22278225#1.6 22278225#1.16 22278225#1.26 196779231#0 196779231#0.12 196779231#1 196779231#1.17 21452694#0 21452694#0.5 21452694#0.7 21452694#0.9 21452694#0.14 21452694#0.21 21452694#0.27 21452694#0.101 21452694#1 21452694#1.9 21452694#1.14 21452694#1.27 21452694#2 415878130#0 415878130#1 415878131#0 415878131#1 682209186 196779232 196779232.9 415878126 415878126.6 415878137#0 415878137#1 194859188#0 194859188#1 194859188#1.24 415878134#0 415878134#1 202177316#0 202177316#1 202177316#2 415878127 415878127.3 415878136#0 415878136#1 -415876790#1 -415876790#0 -756453993 -559526390 -559526390.35 -202485362#1 -202485362#0 -202485362#0.8 -202485362#0.21 -684030184 -559724189#1 -559724189#1.9 -559724189#0 415884022#0 415884022#1 415884022#1.84 7841698#10 7841698#10.7 7841698#10.11 7841698#10.83 7841698#10.85 -164658213#10 -164658213#10.55 -164658213#9 -164658213#8 -164658213#7 -164658213#6 -164658213#6.156 363370637#2 363370637#3 363370637#4 363370637#5 363370637#6 363370637#6.48 -22273544#1 -22273544#1.6 -22273544#1.107 -22273544#0 -22273544#0.36 -22273544#0.38 22273546#2 22273546#2.1 22273546#2.2 22273546#2.4 22273546#2.5 22273546#3 22273546#3.1 22273546#3.3 22273546#3.4 22273546#3.6 -22278234 -22278234.3 -22278234.5 -22278234.190 -193256683#1 -193256683#1.8 -193256683#0 -164658212#1 -164658212#0 -164658212#0.85 -36985595#2 -36985595#2.8 -36985595#2.116 -36985595#2.205 -36985595#1 -36985595#0 -36985594 -22278229#3 -22278229#2 -22278229#1 -22278229#0 -22278229#0.17 -22278228 -22278228.7 -22278228.63 -22277719#8 -22277719#8.6 -22277719#8.91 -22277719#7 -22277719#7.7 -22277719#7.92 -618189913#0 -618189913#0.6 -618189913#0.24 -618189913#0.90 -618189913#0.190 -618189913#0.204 -618189913#0.219 -618189913#0.231 -574377108 -574377108.11 -574377108.13 -574377108.26 -574377108.70 -189843769 -189843769.9 -189843769.16 -189843769.21 -189843769.40 -189843769.53 -189843769.65 -189843769.81 -189843769.92 -189843769.102 -189843769.112 -189843769.128 -189843769.138 -189843769.147 -189843769.158 -189843769.175 -189843769.191 -189843769.207 -189843769.220 -189843769.234 -189843769.257 -189843769.278 -189843769.293 -189843769.305 -189843769.317 -189843769.329 -189843769.366 -189843768 -189843768.9 -6372673#1 -6372673#1.8 -6372673#1.20 6338567#2 6384655 6384655.5 6384655.17 6384655.30 6384655.48 6384655.61 6384655.78 6384655.94 6384655.110 6384655.135 6384655.156 6384655.172 6384655.189 6384655.204 6384655.214 6384655.225 6384655.233 6384655.237 -694455409#3 -694455409#3.4 -694455409#3.6 -694455409#3.10 -694455409#3.32 -694455409#3.62 -694455409#3.77 -694455409#3.89 6368567 6368567.8 6368567.16 6368567.22 6368567.89 6368567.99 6368567.108 6368567.118 6368567.132 6368567.141 6368567.149 6368567.159 -6341488#14 -6341488#14.8 -6341488#14.20 -6341488#14.36 -6341488#14.51 -6341488#14.67 -6341488#14.105 -6341488#14.115 -6341488#14.127 -6341488#13 -6341488#13.6 -6341488#13.35 -6341488#13.61 -6341488#13.81 -6341488#13.101 -6341488#13.124 -6341488#13.176 -6341488#12 -6341488#12.15 -6341488#12.26 -6341488#12.42 -6341488#12.55 -6341488#12.74 -6341488#11 -6341488#11.22 -6341488#11.37 -6341488#11.49 -6341488#10 -6341488#10.15 -6341488#10.27 -6341488#10.40 -6341488#10.58 -6341488#10.73 -6341488#10.85 -6341488#10.95 -6341488#10.107 -6341488#10.117 -6341488#9 -6341488#9.5 -6341488#9.13 -6341488#8 6369262#0 6369262#0.30 6369262#0.59 6369262#1 6369262#1.18 6369262#1.31 6369262#1.47 6369262#1.71 -190579762#6 -190579762#6.13 -190579762#6.17 -190579762#6.26 -190579762#5 -190579762#5.9 -190579762#5.19 -190579762#5.29 -190579762#5.41 -190579762#5.62 -190579762#5.74 -190579762#5.86 -190579762#4 -190579762#3 -190579762#3.10 -190579762#3.21 -190579762#3.33 -190579762#2 -190579762#2.16 -190579762#2.48 -190579762#2.68 -190579762#2.85 -190579762#2.102 -190579762#2.117 -190579762#2.139 -190579762#2.141 -190579762#1 -190579762#1.18 -190579762#1.34 -190579762#1.48 -190579762#1.61 -190579762#1.72 -190579762#0 -190579762#0.9 -190579762#0.20 -190579762#0.30 -190579762#0.41 -190579762#0.48 -190579762#0.50 -6400759 -6400759.10 -6400759.12 190579817#0 190579817#0.11 190579817#1 190579817#1.5 190579817#1.14 190579817#1.25 190579817#1.37 190579817#1.55 190579817#1.68 6333513#0 6333513#0.10 6333513#0.40 6333513#0.51 6333513#0.62 6333513#0.73 6407689#0 -11043364#4 -11043364#3 -11043364#2 -11043364#1 -11043364#0 -11043364#0.73 -11043364#0.81 -7857575#1 -7857575#1.27 -7857575#1.57 -7857575#1.75 -7857575#1.83 -7857575#1.99 -7857575#1.115 -7857575#1.152 -7857575#1.166 -7857575#1.179 -7857575#1.219 -7857575#1.229 -7857575#1.268 -7857575#1.290 -7857575#1.315 -7857575#1.332 -7857575#1.343 -7857575#1.361 -7857575#1.378 -7857575#1.390 -7857575#1.402 -7857575#1.416 -7857575#1.443 -7857575#1.452 -7857575#1.462"/>
</vehicle>
<vehicle id = "veh9" type= "veh_passenger" depart="14420" >
[...]
</vehicle>
<vehicle id = "veh12" type= "veh_passenger" depart="21630" >
<route edges =" 797309093 797309091#0 797309091#0.10 797309091#1 797309091#1.7 797309091#2 797309091#2.10 797309091#2.15 797309091#3 377635148 377635148.3 377635148.5 377635149#0 377635149#0.19 377635149#0.28 377635149#0.40 377635149#0.54 -437142996 -437142996.8 -437142997 -437142997.7 -437142997.19 -437142997.28 -437142995 -6336839 -6336839.8 -6336839.22 -6336839.37 -6336839.47 -6336839.56 -6336839.71 -6336843 -6336843.11 -6336843.20 -6336843.52 -785854260#4 -785854260#4.6 -785854260#4.65 -763290363 -763290363.11 -24620691#4 -24620691#3 -6347955 -6347955.7 -188703042#2 -188703042#1 -188703042#1.59 -188703042#1.74 -188703042#0 -188703042#0.9 -188703042#0.21 -6329505#1 -6329505#1.9 -6329505#1.18 -6329505#1.26 -6329505#1.79 -6329505#1.88 -6329505#1.97 -6329505#1.104 -6329505#0 -201989352#2 -201989352#2.8 -201989352#1 -201989352#1.9 -201989352#1.29 -201989352#0 -195430724#15 -195430724#14 -195430724#14.20 -195430724#13 -195430724#13.78 10585275#1 10585275#1.9 10585275#2 -6357225 -6357225.7 -6332541#0 -6332541#0.83 -195430724#9 -195430724#8 -195430724#7 -195430724#7.8 -195430724#6 -195430724#6.35 -168627934#1 -168627934#1.8 -6360234#5 -6360234#5.7 -6360234#5.16 -6360234#4 -164659473#11 -164659473#10 -164659473#10.7 -164659473#9 -164659473#8 -164659473#8.12 -164659473#7 -164659473#7.13 -164659473#6 -164659473#6.16 -202317716#12 -202317716#12.7 -202317716#11 -202317716#11.7 -202317716#10 -202317716#10.15 -202317716#9 -202317716#9.44 -164659438#2 -164659438#2.12 -164659438#1 -164659438#1.55 -25316538#4 -25316538#4.92 -25316538#3 -25316538#3.7 -25316538#2 -25316538#1 -25316538#0 21455622#0 21455622#0.7 21455622#1 196779227#0 196779227#0.7 196779227#1 196779227#2 196779227#3 541335063#0 541335063#1 541335063#2 415878804#0 415878804#1 415878803#0 415878803#1 541334900#0 541334900#1 541334900#2 541334900#3 541334900#4 541334900#5 541334900#6 698994092#3 698994092#4 698994092#4.84 6348015 6348015.7 761330890 761330889#0 761330889#1 761330889#2 761330889#3 761330889#3.83 761330889#4 517593873#2 517593873#2.29 517593873#3 415876778 22278225#0 22278225#0.24 22278225#1 22278225#1.6 22278225#1.16 22278225#1.26 196779231#0 196779231#0.12 196779231#1 196779231#1.17 21452694#0 21452694#0.5 21452694#0.7 21452694#0.9 21452694#0.14 21452694#0.21 21452694#0.27 21452694#0.101 21452694#1 21452694#1.9 21452694#1.14 21452694#1.27 21452694#2 415878130#0 415878130#1 415878131#0 415878131#1 682209186 196779232 196779232.9 415878126 415878126.6 415878137#0 415878137#1 194859188#0 194859188#1 194859188#1.24 415878134#0 415878134#1 202177316#0 202177316#1 202177316#2 415878127 415878127.3 415878136#0 415878136#1 415876789 195433872 -168627978#4 -168627978#3 -168627978#2 -168627978#1 -168627978#1.20 -168627978#0 -168627978#0.13 -168627978#0.22 -168627978#0.59 -168627978#0.79 -168627978#0.98 -168627978#0.113 -168627978#0.142 -24314605#16 -24314605#16.7 -24314605#16.11 -24314605#16.83 -24314605#16.86 -21452801#12 -21452801#12.7 -21452801#12.36 -21452801#11 -21452801#10 -21452801#10.1 -21452801#10.21 -21452801#9 363370637#4 363370637#5 363370637#6 363370637#6.48 363370637#7 363370637#7.6 -6400722#10 -6400722#10.8 -6400722#9 -6400722#8 -6400722#7 -6400722#6 -6400722#6.20 -6400722#6.23 -6400722#5 -6400722#5.7 -6400722#5.8 -6400722#4 -6400722#3 -6400722#2 -22278233#1 -22278233#0 -22278233#0.43 -193256683#1 -193256683#1.8 -193256683#0 21452801#0 21452801#1 21452801#1.16 21452801#1.19 21452801#2 21452801#3 -32618074#6 -32618074#5 -32618074#4 -32618074#4.52 -32618074#3 -32618074#2 -32618074#1 -32618074#0 415884014#0 415884014#1 574404431 32618073 32618073.10 32618073.17 906507782 22277730#0 22277730#1 906507783#0 906507783#0.5 906507783#1 22277729#0 22277729#1 22277729#1.73 22277729#1.129 22277729#1.185 22277729#2 22277729#3 36985596 36985597#0 36985597#1 36985597#2 36985597#2.46 36985597#2.74 541337642 541337642.7 -6375690 -6375690.18 -6375690.45 -6375690.64 -6375690.85 -6375690.105 -6375690.129 -6375690.151 -6375690.165 -541337829 -541337829.64 -541337829.72 -541337829.78 -541337829.80 30832954#1 30832954#1.83 30832954#1.105 30832954#1.115 30832954#1.126 30832954#1.148 30832954#1.165 30832954#1.179 30832954#1.191 30832954#1.194 -22277721 -22277721.9 -22277721.94 -22277721.101 -22277721.104 22277720#0 22277720#0.2 22277720#0.3 22277720#0.6 22277720#0.36 22277720#0.50 22277720#1 22277720#1.7 22277720#1.94 22277720#1.194 6402601#4 6402601#4.6 6402601#5 6402601#6 6402601#7 22278219#3 22278219#4 22278219#4.22 22278219#5 22278219#5.35 22278219#5.50 22278219#5.61 22278219#6 22278219#6.5 22277732#0 22277732#0.16 22277732#1 -32456227#1 -32456227#0 -32456218#4 -32456218#3 -32456218#3.52 22277720#3 22277720#3.7 22277720#3.194 6398141#6 6398141#6.7 6398141#6.93 6339837#5 6339837#5.7 6339837#6 6339837#6.92 -415882499#3 -415882499#3.93 23089173#0 23089173#0.6 23089173#0.8 23089173#0.45 23089173#0.52 23089173#0.60 23089173#0.70 23089173#0.79 23089173#0.97 23089173#1 23089173#1.7 23089173#1.20 23089173#1.29 23089173#1.36 23089173#1.42 23089173#1.54 23089173#1.62 23089173#1.67 23089173#1.93 23089173#2 23089173#2.7 23089173#2.10 23089173#2.43 23089173#2.49 23089173#2.61 23089173#2.72 23089173#2.93 -22370936#6 -22370936#6.8 -22370936#6.9 -22370936#6.191 -22370936#6.196 -22370936#5 -22370936#5.8 -22370936#5.9 -22370936#4 -22370936#4.87 -30909407#3 24314605#2 24314605#3 24314605#4 24314605#4.91 24314605#4.93 -363370643#0 -363370643#0.7 -363370643#0.54 -363370643#0.162 -415884012#1 -415884012#1.2 -415884012#0 -195433868#9 -195433868#8 -195433868#8.3 -195433868#8.84 -195433868#7 -195433868#7.7 -195433868#7.94 -195433868#6 -195433868#6.94 -6333700#2 -6333700#2.7 -6333700#2.9 -6333700#1 -6333700#1.92 -6333700#1.94 -6398141#0 -6398141#0.8 -6398141#0.10 -6398141#0.51 -6398141#0.78 -6398141#0.167 6346111#2 6346111#3 6346111#3.91 6346111#3.92 -195433868#4 -195433868#4.7 -6347574 -6336003#0 -6336003#0.64 -30832687#0 -30832687#0.21 -422929506 166409141#0 166409141#0.126 -6346111#0 168627943#1 168627943#2 168627943#4 168627943#5 168627943#6 168627943#6.3 168627943#6.47 168627943#6.62 168627943#6.119 168627943#7 168627943#7.7 -24164451#1 -24164451#1.7 -24164451#1.193 6402601#1 6402601#1.92 -26723188#0 -26723188#0.7 -26723188#0.29 -32866333 -32866333.30 -32866333.52 6356111#0 6356111#0.11 6356111#1 6356111#1.59 6356111#1.61 6356111#1.64 -6378710 -6378710.2 -6378710.5 -6378710.11 -6378710.17 -6378710.33 -6378710.43 -6378710.58 -6378710.70 -6378710.82 -6378710.100 195595360#2 195595360#2.6 234074079 234074079.75 234074081 234074080#0 234074080#0.5 234074080#1 234074080#1.6 234074080#2 234074080#2.1 -697544432 -697544432.10 -6408035 -6408035.17 697544433#2 697544433#2.14 6351007#0 6351007#0.29 6351007#0.46 6351007#0.52 6351007#0.56 6351007#0.62 6351007#0.66 6351007#0.72 6351007#0.77 6351007#0.83 6351007#0.89 6351007#0.98 6351007#1 -6332167#0 -6332167#0.10 6386692#3 6386692#3.3 6386692#3.6 6386692#3.9 6338567#0 6338567#0.10 6338567#0.118 6338567#1 6338567#1.107 -6372673#0 -6372673#0.7 -6372673#0.15 -6372673#0.28 -6372673#0.42 -6372673#0.56 -6372673#0.76 -6372673#0.85 -6372673#0.95 -6372673#0.109 -6372673#0.123 -436204253#0 -436204253#0.23 -436204258 -436204258.24 -436204258.31 -436204258.38 -436204258.45 -436204258.52 -436204258.59 -436204257#1 -436204257#1.24 -436204257#1.61 -436204257#0 -436204257#0.152 -436204257#0.159 11154779#8 11154779#8.19 11154779#8.25 6338567#4 6338567#4.78 -193256686#18 -193256686#18.7 -193256686#18.13 -193256686#18.29 -193256686#18.38 -193256686#18.57 -193256686#18.88 -193256686#18.120 -193256686#18.133 -193256686#18.145 -193256686#18.160 -193256686#18.174 -193256686#18.187 -193256686#18.196 -193256686#18.199 -193256686#17 -193256686#17.11 -193256686#17.27 -193256686#17.62 -193256686#17.71 -193256686#16 -193256686#16.14 -193256686#16.26 -193256686#16.40 -193256686#16.54 -193256686#16.68 -193256686#16.103 -193256686#16.120 -193256686#15 -193256686#15.16 -193256686#15.31 -193256686#15.44 -193256686#15.66 -193256686#15.91 -193256686#15.106 -193256686#14 -193256686#14.15 -193256686#14.42 -193256686#14.52 -193256686#14.56 6371698#0 6371698#0.8 6371698#0.40 -6347601 -6347601.66 -6347601.77 -6347601.86 -6347601.97 -6347601.110 -6347601.121 -6347601.129 -6347601.138 -6347601.149 -6347601.160 -6347601.171 -6347601.182 -6347601.196 -6347601.246 -193256686#12 -193256686#12.5 -193256686#11 -193256686#10 -193256686#10.8 -193256686#10.24 -193256686#10.37 -193256686#10.49 -193256686#9 -193256686#9.5 -193256686#8 -193256686#8.5 -193256686#8.12 -193256686#8.105 -193256686#8.128 -193256686#8.132 -193256686#7 -193256686#6 -193256686#5 -193256686#5.27 -193256686#5.34 -193256686#5.40 -193256686#5.47 -193256686#5.54 -193256686#5.61 -193256686#5.69 -193256686#5.76 -193256686#5.84 -193256686#4 -193256686#4.7 -193256686#4.15 -193256686#3 -193256686#3.7 -193256686#3.19 -193256686#3.30 -193256686#3.41 -193256686#2 -193256686#2.16 -193256686#2.19 -193256686#2.48 6347788 6347788.7 6347788.9 6347788.14 6347788.22 6347788.51 6347788.59 6347788.65 6347788.71 6347788.77 6347788.83 -6341488#0 -6341488#0.9 -6341488#0.19 -6341488#0.28 -6341488#0.39 -6341488#0.86 -6341488#0.94 190579820 190579820.7 190579803 190579803.140 190579803.149 190579803.157 190579803.166 190579803.175 190579817#0 190579817#0.11 190579817#1 190579817#1.5 190579817#1.14 190579817#1.25 190579817#1.37 190579817#1.55 190579817#1.68 6333513#0 6333513#0.10 6333513#0.40 6333513#0.51 6333513#0.62 6333513#0.73 6407689#0 -11043364#4 6344393 6344393.33 6344393.38 6344393.42 6344393.48 -11043364#2 -11043364#1 -11043364#0 -11043364#0.73 -11043364#0.81 -7857575#1 -7857575#1.27 -7857575#1.57 -7857575#1.75 -7857575#1.83 -7857575#1.99 -7857575#1.115 -7857575#1.152 -7857575#1.166 -7857575#1.179 -7857575#1.219 -7857575#1.229 -7857575#1.268 -7857575#1.290 -7857575#1.315 -7857575#1.332 -7857575#1.343 -7857575#1.361 -7857575#1.378 -7857575#1.390 -7857575#1.402 -7857575#1.416 -7857575#1.443 -7857575#1.452 -7857575#1.462"/>
</vehicle>
<vehicle id = "veh13" type= "veh_passenger" depart="21630" >
<route edges =" -316633577#1 -316633577#0 -6340080#2 -6340080#1 -6340080#0 -6340080#0.27 -201989373 -201989373.4 -201989373.9 -201989373.42 678979330 678979330.18 24620199 24620199.9 24620199.11 -6405162#1 -6405162#1.8 -6405162#1.26 -6405162#1.79 -6405162#0 -6405162#0.9 -6405162#0.41 -6405162#0.58 -6405162#0.69 -6405162#0.78 -6405162#0.84 -6405162#0.90 -6356253 -6356253.9 -6356253.18 -6356253.25 -6356253.32 -6356253.183 -6356253.191 -6356253.193 -201989360#2 -201989360#2.6 -201989360#2.14 -201989360#1 -201989360#1.34 -201989360#0 -201989360#0.20 -201989360#0.24 -656030857 -656030854 24620194 24620194.9 24620194.16 24620194.19 -698994088#2 -698994088#1 -698994088#1.18 -698994088#0 -698994088#0.76 -698994089#1 -698994089#1.4 -698994089#0 -21460654 -21460654.2 -21460654.3 -21460654.34 -21460654.121 -21460654.130 -21460654.140 -24620176#2 -24620176#2.10 -24620176#2.23 -24620176#2.35 -24620176#1 -24620176#0 21459815#0 21459815#1 -6339489#1 -6339489#1.6 -6339489#0 -6339489#0.112 -6339489#0.116 -6339489#0.117 -7781335 -7781335.7 -7781335.9 -7781335.148 -7781335.152 -6403136 -6403136.5 -6403136.98 -6403136.101 659099712#0 659099712#0.28 659099712#0.35 659099712#1 659099712#2 201989371#0 201989371#1 201989371#1.4 201989371#1.20 201989371#2 201989371#2.4 201989371#2.24 201989371#2.80 201989371#2.102 201989371#2.113 201989371#2.143 201989371#2.151 201989371#2.158 201989371#2.159 201989371#3 201989371#4 201989371#4.9 201989371#4.13 201989371#4.22 -6338294#1 -6338294#0 -6338294#0.13 -6338294#0.33 -6338294#0.79 -6338294#0.94 -6338294#0.100 -6377274#2 -6377274#2.14 -6377274#2.19 -6377274#2.20 -6377274#2.34 -6377274#2.36 -6377274#2.56 -6377274#2.83 -6377274#1 -6377274#1.17 -6377274#1.27 -6377274#0 -6377274#0.5 698805191#0 698805191#0.5 698805191#1 698805191#2 698805190 698805190.31 -517583963#3 -517583963#3.30 -517583963#2 -517583963#2.22 -517583963#1 -517583963#1.13 -517583963#1.28 -517583963#1.48 -517583963#0 -517583963#0.2 -517583963#0.16 -517583963#0.29 -195433870#1 -7991097#3 -7991097#2 -7991097#2.2 -7991097#2.17 -7991097#1 -7991097#0 -7991097#0.34 -698994082 -698994082.6 -698994082.54 -430174917 -430174917.13 -22273562#0 -22273562#0.5 -22273562#0.14 22273560 22273560.7 22273560.25 22273560.34 22273560.43 22273560.50 22273560.57 22273560.68 22273560.81 -6365504#9 -6365504#9.25 22273567#2 22273567#2.7 184891166 184891177 227756441 227756441.8 227756441.14 227756442#0 227756442#0.17 227756442#1 227756442#1.7 227756442#2 227756442#2.67 -184876631#7 -184876631#7.6 -184876631#6 -184876631#5 -184876631#4 -184876631#3 -184876631#2 -184876631#1 -184876631#0 -6400775#33 -6400775#32 -6400775#32.8 -6400775#31 -6400775#31.40 -6400775#30 -6400775#30.7 -6400775#30.20 -6400775#29 -6400775#28 -6400775#28.41 -6400775#28.46 -6365504#5 -6365504#5.7 -6365504#4 -6365504#4.86 -6365504#4.101 -6365504#4.116 -6365504#4.130 -6365504#4.154 -6365504#3 -6339579#6 -6339579#5 -6339579#5.3 -6339579#4 -6339579#3 -6339579#3.31 22275208#1 22275208#1.8 22275208#2 22275208#2.64 -6400775#25 -6400775#25.7 -6400775#25.85 -6400775#25.87 -6341088#1 -6341088#1.6 -6341088#1.171 -6341088#0 -6341088#0.7 -6341088#0.123 -7990899#1 -7990899#0 -7990899#0.77 288127321#0 288127321#1 288127321#2 288127321#2.19 -430285894 -430285894.21 -430285894.48 -430285894.58 -430285894.70 -430285894.112 -430285894.151 -430285894.190 -6329140#3 -6329140#2 -6329140#2.7 -6329140#2.25 -6329140#2.71 -6329140#2.119 -6329140#2.131 -6329140#2.141 -6329140#1 -6329140#1.8 -6329140#1.22 -6329140#1.46 -6329140#1.54 -6329140#1.77 -6329140#0 -6400775#15 -6400775#15.27 -6400775#15.60 -6400775#15.68 -6400775#15.72 -6400775#15.75 -6400775#14 -6400775#13 -6400775#13.4 -6400775#12 -6400775#11 -6400775#10 -6400775#10.91 -6400775#10.107 430285891 6398981 6398981.7 6398981.30 6398981.36 6398981.42 6398981.50 6398981.79 -6347531 -6347531.58 -6347531.76 -6347531.94 -6400722#0 190380683#0 190380683#0.12 190380683#0.36 190380683#1 190380683#1.14 190380683#1.31 190380683#1.46 -618189913#4 -618189913#4.5 -618189913#4.9 -618189913#4.25 -618189913#3 -618189913#2 -618189913#1 -618189913#1.76 -618189913#1.91 -22277719#6 -22277719#6.7 -22277719#5 -22277719#4 -22277719#3 -22277719#2 -22277719#1 -22277719#1.48 -22277719#1.63 -22277719#0 -6400775#3 -6400775#3.15 -6400775#3.35 -6400775#3.44 -6400775#3.53 -6400775#3.63 -6400775#3.76 -6400775#3.90 -6400775#3.101 -6400775#3.112 -6400775#3.121 -6400775#2 -6400775#2.9 -6400775#2.16 -6400775#2.23 -6400775#2.29 -6400775#1 -6400775#1.10 -6400775#1.28 -6400775#1.38 -6400775#1.49 -6400775#1.59 -6400775#0 -6400775#0.3 -6400775#0.8 24221419#0 24221419#0.12 24221419#0.22 24221419#0.35 24221419#0.47 24221419#1 24221419#1.10 24221419#2 24221419#2.4 24221419#2.15 24221419#2.26 24221419#2.38 24221419#2.49 24221419#3 24221419#4 24221419#4.8 24221419#4.15 24221419#4.24 24221419#4.32 24221419#4.41 24221419#4.49 24221419#4.57 24221419#4.69 24221419#4.82 24221419#4.94 24221419#4.100 24221419#4.109 24221419#4.119 24221419#4.127 24221419#5 24221419#5.9 24221419#5.16 24221419#5.22 24221419#5.29 -190579762#18 -190579762#18.4 -190579762#18.5 -190579762#18.14 -190579762#18.28 -190579762#18.50 -190579762#18.74 -190579762#17 -190579762#17.47 -6341488#15 -6341488#15.10 -6341488#15.23 -6341488#15.36 -6341488#15.49 -6341488#15.61 -6341488#15.73 -6341488#15.84 -6341488#15.97 -6341488#15.111 -6341488#15.124 -6341488#15.136 -6341488#15.150 -6341488#15.163 -6341488#15.179 -6341488#15.229 -6341488#15.241 -6368567 -6368567.11 -6368567.21 -6368567.29 -6368567.38 -6368567.52 -6368567.63 -6368567.71 -6368567.82 -6368567.148 -6368567.155 -6368567.162 -694455409#1 -694455409#1.21 -694455409#0 -694455409#0.15 -694455409#0.26 -694455409#0.37 -694455409#0.48 -694455409#0.58 -694455409#0.68 -694455409#0.104 -694455409#0.109 -694455409#0.119 6338567#5 6338567#5.8 6338567#6 6338567#7 6338567#7.90 6338567#8 6338567#8.11 6338567#9 6338567#10 6338567#11 -6331171#0 -6331171#0.25 -6331171#0.43 -6331171#0.60 -6331171#0.76 -6331171#0.88 -6331171#0.103 -6331171#0.128 -6331171#0.142 -6331171#0.152 -6331171#0.164 -6331171#0.175 -6331171#0.204 -6331171#0.224 -6331171#0.241 -6331171#0.267 -6331171#0.278 -6331171#0.300 -6331171#0.317 -6331171#0.335 -6331171#0.377 -6331171#0.390 -6331171#0.400 190579779#3 190579779#3.8 190579779#3.15 190579779#3.31 190579811#0 190579811#0.14 190579811#0.31 190579811#0.46 190579811#0.61 190579811#0.77 190579811#0.101 190579811#0.116 190579811#0.136 190579811#0.154 190579811#0.171 190579811#0.189 190579811#0.205 190579811#0.225 190579811#0.230 -11043363#4 -11043363#4.9 -11043363#4.16 -11043363#4.34 -11043363#4.41 -11043363#3 -11043363#3.7 -11043363#2 -11043363#1 -11043363#0 7857575#0 7857575#0.10 7857575#0.24 7857575#0.39 7857575#0.57 7857575#0.75 7857575#0.88 7857575#0.126 7857575#0.144 7857575#0.146 7857575#0.162 7857575#0.184 7857575#0.212 7857575#0.218 7857575#0.224 7857575#0.229 7857575#0.241 7857575#0.275 7857575#0.303 7857575#0.315 7857575#0.324 7857575#0.326 7857575#0.339 7857575#0.350 7857575#0.357 7857575#0.360 7857575#0.410 7857575#1 7857575#1.42 7857575#1.66 7857575#1.85"/>
</vehicle>
</routes>
