<?xml version="1.0" encoding="UTF-8"?>
<routes xmlns:xsi="http: // www.w3.org/2001/XMLSchema-instance" xsi:noNamespaceSchemaLocation="http: // sumo.dlr.de/xsd/routes_file.xsd">
<vType id="veh_passenger" vClass="passenger"/>

<vehicle id = "veh0" type= "veh_passenger" depart="0" >
<route edges =" -45342801#4 -45342801#3 -45342801#2 -45342801#1 -45342801#0 45342798#2 45342798#3 45342798#4 45342798#5 45342813#0 45342813#1 45342813#2 -45342814#1 44740902#11 44740902#12 44740902#13 44740902#14 44740902#14.81 44740902#14.94 -874839172#0 -44740943 -313316091#20 951438760#0 951438760#1 -44740929#4 -951438759 44740922#2 44740922#2.25 44740953#0 44740953#2 44740953#3 44740953#4 44740953#5 44740953#6 44740953#7 44740949#2 -44740919#1 -44740919#0 44740920#8 -313316091#0 -313316091#0.27 -313316091#0.72 -313316091#0.80 -971495601#9 -971495601#9.28 -971495601#8 -971495601#7 -971495601#6 -971495601#5 -971495601#3 -971495601#1 -971495601#0 -313316086 -44739144#26 -44739144#24 -44739144#22 -44739144#21 -44739144#20 -44739144#19 -44739144#19.14 -44739144#18 -877398366#21 -877398366#20 -877398366#19 -877398366#18 -877398366#17 -877398366#17.7 -877398366#16 -877398366#15 -877398366#15.29 -877398366#14 -877398366#14.72 -877398366#13 -671191680#14 -671191680#13 -671191680#11 -671191680#9 -671191680#8 -671191680#6 -896786326#1 -896786326#0 -896786328#0 -896786328#0.177 -951951638#10 -951951638#10.18 -951951638#9 -951951638#8 -951951638#7 -951951638#5 -951951638#4 -951951638#3 -951951638#2 -951946794#1 -951946794#0 951946792#1 896786337#8 896786337#8.8 -951887683 -951887684 -951887682#6 -951887682#5 -951887682#4 -951887682#3 951887692 -951887691#0 -951887682#0 -951887700#14 -951961240#3 -951961240#1 -951961245 951891772#0 -951891773 -951891771#0"/>
</vehicle>
<vehicle id = "veh1" type= "veh_passenger" depart="0" >
<route edges =" 45342801#5 45342801#5.32 902433317#3 902433317#4 902433317#6 902433317#7 902433317#8 902433317#8.29 951368593#1 972507120#2 45342812#0 45342812#1 45342811#2 45342811#2.66 45344273#23 45344273#23.11 45344273#24 -897252873#2 -897252873#1 -897252873#1.42 -897252873#0 -897252873#0.25 897252876#4 45344320#2 45344320#3 -45344331#4 45344327#1 903341090 -45344335#4 -950235690#1 -950235690#0 -950235690#0.14 700254525#11 700254524#0 700254523 -700254525#0 45344272#4 950233988#0 45344283#9 45344283#10 45344283#10.15 45344283#10.46 45344283#10.69 45344283#10.88 45344283#10.150 45344283#10.196 45344283#10.260 45344283#10.377 45344283#10.468 45344283#10.514 670655885 670655885.12 896892975 971495602#12 971495602#12.26 971495602#12.77 951442813 951442812#0 -896786335#50 -896786335#49 -896786335#48 -896786335#48.15 -896786335#47 -896786335#46 -896786335#44 -896786335#44.9 -896786335#44.71 -896786335#43 -896786335#42 -896786335#42.22 -896786335#41 -896786335#40 -896786335#39 -896786335#39.27 -896786335#37 -896786335#36 -896786335#34 -896786335#33 -896786335#32 -896786335#32.17 -896786335#31 -896786335#31.22 -896786335#30 -896786335#29 -896786335#29.17 -896786335#28 -896786335#27 -896786335#27.19 -896786335#26 -951995494#1 -951995491#2 -951995491#1 -951995491#0 -896786266#12 909024250#0 909024250#1 909024250#2 909024250#4 909024250#5 909024250#6 909024239#0 909024239#1 909024239#1.17 909024239#2 909024239#2.40 -951983585 -951975994 -896786324#1 -896786324#0 -896786324#0.19 -896786324#0.132 -896786324#0.177 951951639#0 951946803#0 951946795#1 951946795#2 951946795#3 951946795#4 951946795#6 951946795#7 951946795#9 951946795#10 951946795#11 951946795#11.34 951946795#11.40 951946795#11.45 896786337#10 896786337#10.21 -951887700#20 -951887700#19 -671756019#4 -951961235 951961234#1 -951878265#2 -951878265#1 -951878265#0 951878264#2 -951878263#3 -951878266#4 -951878266#4.37 -951878266#2 -951878266#1 -951878266#1.39 -951878266#1.47"/>
</vehicle>
<vehicle id = "veh2" type= "veh_passenger" depart="0" >
<route edges =" 951370989 951370989.40 951370989.47 951370989.53 951370989.56 951370989.62 951370989.64 951370989.67 -902433320#1 -902433320#0 902433321#2 45342799#21 45342809#0 45342809#1 45342809#2 45342809#3 45342809#4 45342809#5 45342809#6 45342809#7 45342809#8 44740885#10 -45342826#1 -45342826#0 45342825#1 45342825#2 45342828#0 45342828#1 45342828#1.100 -45344273#6 -45344273#6.40 -45344273#6.59 -951384598#3 -951384598#2 -951404491 -951404491.16 -951404491.28 -951404491.40 -951404491.51 -951384599#0 700249213#9 700249213#10 700249213#11 45342808#10 45342808#11 45342808#11.24 45342808#12 -897252871 -897252870 -45344310#2 -45344310#1 -45344310#0 -45344310#0.10 -45344310#0.18 -45344310#0.30 -45344310#0.41 -45344310#0.52 971495602#8 971495602#8.24 971495602#8.86 -313316104#6 -45378650#5 -45378650#5.11 -45378650#4 45378645#0 45378645#0.44 -908846596#3 -908846596#2 45378650#1 -908846593 -908846593.73 908560901#8 908560901#8.23 908560901#8.56 -313316104#0 -313316082 -45378649#12 896786296#0 896786296#1 896786296#1.36 -896786262#6 -896786262#6.15 -896786262#5 -896786262#4 -896786262#4.31 -896786262#3 -896786262#3.9 -896786262#1 -896786262#0 -896786262#0.33 -896786262#0.115 -896786260#1 -896786260#1.5 -896786260#0 -896786260#0.52 896786257#4 909024248 909024248.50 -45378665#3 -45378665#3.29 -45378665#3.50 -45378665#2 -45378665#2.36 -45378665#1 -45378665#0 -45378665#0.39 -45378665#0.75 -896786335#14 -896786335#14.27 -896786335#13 -896786335#12 -896786335#12.15 -896786335#11 -896786335#10 -896786335#10.38 -951976010#1 -951976011#0 896786321#2 -896786320#3 -896786320#3.5 -896786320#1 -896786320#0 -896786316#3 -896786316#2 -896786316#1 -896786316#1.33 -896786314 -951930663#1 -951930663#0 -877395784#11 -877395784#11.58 951946825#0 951946825#1 -951946816#4 951946844 877399011#1 951946810#2 -896786337#14 -896786337#14.40 -896786337#14.111 -952365020 -952365021 -951878231#2 -951951643#6 -951951643#5 -951951643#4 -951951643#3 -951951643#2 876509484#2 -951951642#1 -951951642#0 -951878263#5 -951878269#15 -951891772#2 -951891774 951891771#2 951878270#2 877401978#0 877401978#1 951878266#0"/>
</vehicle>
<vehicle id = "veh3" type= "veh_passenger" depart="3605" >
<route edges =" -45342801#4 -45342801#3 903341082#0 903341082#0.10 903341082#1 -951368605#1 -951368605#0 -45342811#0 -45342801#0 45342798#2 45342798#3 45342798#4 45342818#0 -45342817#2 -45342817#1 -45342817#0 45342813#1 951370984#2 44740902#10 44740902#10.9 44740902#11 44740885#7 -45342841 45342802#2 -45342803#1 44740957#0 -951417477 -45342843#1 45342844 -45342808#0 -45342808#0.42 671399046#0 671399046#0.17 671399046#0.59 44740957#4 -671399051#1 -671399051#0 -44740942#1 -44740942#0 974189220#5 902433296 44740967#0 44740967#1 44740967#2 -44740930#16 -44740962#2 -44740962#1 -44740962#0 44740960#1 44740929#9 44740929#9.20 44740929#10 955813295#1 955813295#1.169 955410233 -44740922#8 44740930#11 44740929#0 44740967#4 -44740922#3 44740953#0 44740953#2 44740940#0 44740945#0 44740946#0 44740948#0 44740948#1 44740940#2 -313316091#12 45378690#0 45378690#0.38 -45378691 -45378682#0 -45378682#0.30 -313316091#8 -313316091#8.29 45378683#0 45378683#0.76 45378689#0 45378689#1 45378688#0 45378655#0 45378640#0 -45378687#1 -45378687#0 45378686#1 45378658#1 45378658#2 45378658#3 -45378683#3 -45378683#2 45378655#2 45378655#3 45378685#3 -45378653#5 951358812 45378655#6 951358810#1 951358810#1.4 -45378656#0 -45378656#0.43 -45378656#0.46 -45378656#0.48 -45378656#0.49 -45378656#0.51 -45378656#0.58 -45378656#0.60 -45378656#0.62 -45378656#0.64 45378654#1 45378657#4 -44739163#20 -44739163#19 -44739163#18 44740927#10 951358806#0 951358805#0 951358805#1 -44740928#1 -44740926#6 -44739167#10 -44740930#7 -44740930#6 -44739163#14 102277232#3 102277232#4 102277232#4.80 102277232#4.133 102277232#4.154 102277232#5 102277232#6 672803221 672803221.14 672803221.21 672803221.29 672803221.35 672803221.40 896892969#12 44740930#0 44740930#0.11 951358794#0 951358794#1 951358794#2 44740927#1 44740927#2 -44740920#2 -44740920#1 -44740939#1 951346853 44740930#3 44740930#4 44739156#14 44740981#0 44740983#0 44740983#1 -951358800#1 -951358800#0 -44740918#1 44740931#0 -44740919#0 44740920#8 -313316091#0 -313316091#0.27 -313316091#0.72 -313316091#0.80 -971495601#9 -971495601#9.28 -971495601#8 -971495601#7 44740916#12 44740916#13 909019768#0 909019768#0.14 909019768#0.25 -909019765 -909019766#0 909019767#1 909019767#1.24 909019767#1.35 -971495601#5 -45378660#1 -45378660#1.21 -45378660#1.52 -45378660#1.88 -45378660#1.126 -908560900#3 951346855#0 951346855#0.40 951346855#0.55 -951346854 -951346854.30 -951346854.33 -951346854.34 -951346854.36 -951346854.39 -951346854.40 -951346854.42 -951346854.50 -951346854.52 -951346854.54 -951346854.56 -951346854.59 -951346854.61 -951346854.62 -951346854.64 -951346854.65 -951346854.67 -951346854.69 -951346854.101 -908560901#21 -908560901#21.18 -908560901#21.74 -908560901#20 -908560901#20.10 -908560901#20.61 -908560901#20.115 -908560901#19 -908560901#19.77 -908560901#19.104 -896786299#0 -896786298 -45378665#19 -45378665#18 -951346845 -951346845.45 -951346845.46 -951346845.48 -951346845.49 -951346845.51 -951346845.52 -951346845.76 -951346845.78 -951346845.80 -951346845.82 -951346845.84 -951346845.103 -951346845.133 -951346845.138 -951346845.141 -951346845.144 -951346845.148 896786295#3 896786295#3.23 896786295#4 896786295#5 -896786282#4 -896786282#4.21 -896786282#4.92 896786281#0 896786280#1 -896786275#5 -896786275#4 -896786275#3 896786271#1 896786270#0 -909024281 -909024281.42 -896786275#1 -896786275#1.18 -896786275#0 -896786275#0.11 896786268#2 896786268#2.6 951421977 896786269#9 -896786295#10 -896786295#9 -896786295#8 -896786295#8.13 -896786295#8.15 909024260 909024260.21 909024260.64 909024260.121 951346848#1 896786296#16 896786296#17 896786296#17.29 896786296#17.96 896786296#17.102 896786296#18 896786296#18.4 896786296#18.17 -44739144#24 909024272#0 909024272#0.29 909024273#0 909024273#0.33 909024273#1 909024273#2 -909024275#1 -909024275#0 -909024275#0.56 909024279#3 909024277#0 909024270 909024270.21 909024270.47 -896786289#3 -702673217#2 -702673217#1 -702673217#0 -44739144#18 671752228#0 -671960103#1 -671960103#0 -671960104#0 -909024265#3 -952002225#0 -877398366#20 -909024264#1 -909024263 -909024263.30 -909024265#0 896786289#1 896786289#1.39 -877398366#18 -877398366#17 -877398366#17.7 896786294#0 896786294#0.33 896786276 896786276.34 896786278#0 896786278#0.39 896786278#1 896786267#2 -877398366#13 -671191680#14 -877396860#10 -877396860#9 -877396860#9.4 -877396860#8 -877396860#7 -877396860#6 904371465#0 904371465#1 904371465#2 904371467#2 904371467#2.64 904371467#2.129 -671191680#8 -904286371 -904286373#2 -904286373#2.6 -904286373#1 -904286373#0 -904286375#1 904286372#1 904286381#4 -951992355 904286385#12 904286385#13 904286385#13.24 904286385#15 904286385#15.27 -904286386#4 -904286386#4.23 -904371470#0 904371473#1 904371473#1.24 904371473#3 -904286388#0 904286386#7 671191683#3 -904286387#3 -904286387#3.46 -904286387#3.53 951973456#0 951973456#1 951973451#1 951973451#3 951973452#3 -904371488#8 -904371488#8.6 -904371488#8.17 -904371488#7 -904371488#7.3 -904371488#7.6 -904371488#6 -904371488#5 -904371488#4 904371486#0 951992348 -904286385#8 -904286385#6 -904286385#5 -904286385#5.9 -904371490#4 951973470#0 951973470#1 951973470#1.14 951973470#1.18 951973470#1.21 671191680#5 -896786326#1 -896786327#1 -896786327#1.48 -896786327#1.55 -896786327#1.60 -896786327#1.64 -896786327#1.68 -896786327#1.74 -896786327#1.124 -896786327#1.170 -896786327#1.205 -896786327#1.211 -896786327#0 877395784#22 877395784#22.56 904371492#0 904371492#0.68 904371492#2 -904371491 -904286385#2 -904371493#4 -671191681#2 -951973437#1 -951973437#0 -951973436#0 -951973436#0.3 -951973436#0.8 -877395784#25 -877395784#25.55 -952002224#7 -952002224#7.17 -952002224#7.71 -952002224#6 -952002224#5 -952002224#5.5 951973430#0 -951951638#4 951946798#1 951951639#10 951951639#11 951951639#13 -951946794#0 951946792#1 896786337#8 896786337#8.8 -951887683 -951887684 -951887682#6 -951887682#5 -951887682#4 -951887682#3 951887692 -951887691#0 -951887682#0 -951961243 -951961242#0 -951961240#1 -951961245 951891772#0 -951891773 -951891771#0"/>
</vehicle>
<vehicle id = "veh4" type= "veh_passenger" depart="3605" >
<route edges =" 45342801#5 45342801#5.32 902433317#3 902433317#4 902433317#6 902433317#7 902433317#8 902433317#8.29 902433317#9 951368594#0 951368594#1 951368594#2 972507120#3 -951366780#1 -951366780#1.2 -951366780#1.41 951366779#0 951366779#1 45342812#1 45342811#2 45342811#2.66 45344273#23 45344273#23.11 -951379890#1 -951379890#1.37 -951379890#1.47 -951379889 -951379889.17 -951379889.23 -951379889.29 -951379889.36 -951379889.42 -897252873#1 -897252873#1.42 -897252873#0 -897252873#0.25 897252876#4 -45344320#1 -45344320#0 -45344320#0.48 -45344320#0.63 -45344320#0.71 -45344320#0.79 -45344273#19 -45344273#18 -45344273#18.17 -45344273#17 -45344273#17.20 -45344273#17.31 -951404487 -951404487.23 -951404487.30 -951404487.34 -951404487.41 -951404487.54 -951404487.65 -951404487.81 -951404487.106 -951404487.117 -951404487.125 -951404487.130 -951404487.140 -951404487.150 -951404487.157 897252876#8 902433295#2 -45344329#3 -45344329#2 897252884#0 897252884#1 897252884#1.14 897252884#1.26 897252884#1.51 897252884#1.72 897252884#1.89 897252884#1.109 897252884#1.138 897252884#1.166 897252883#0 897252883#0.24 951404496 951404496.55 951404496.57 951404496.59 951404496.62 951404496.65 -897172091#5 -951381433 -951381433.36 -951381433.38 -951381433.39 -951381433.41 -951381433.42 -951381433.44 -951381433.48 -951381433.49 -951381433.50 -951381433.52 -951381433.53 902433295#5 45344326#2 45344326#2.16 45344331#0 952274660 952274660.29 952274660.31 952274660.34 -951404486#0 -45344333#1 -45344333#0 45344329#5 45344329#6 45344327#0 45344331#4 45344320#4 45344320#5 45344320#5.26 45344320#6 45344320#6.8 45344335#8 -45344336#7 -45344336#7.6 950235692#0 950235694#3 950235694#4 950235694#4.8 950235694#4.19 950235694#4.29 950235694#4.38 950235694#4.48 950235694#4.103 950235694#4.115 950235694#4.119 950235694#4.123 950235694#4.127 -950455050 -950455050.25 -950455050.33 -950455050.39 -950455050.53 -950455050.56 -950455050.59 -950455050.61 -950455050.72 -950455050.74 -950455050.76 -950455050.78 -950455051#0 -950455051#0.3 -950455051#0.18 -950455051#0.33 -950455048#0 -950455048#0.5 -950455048#0.11 -950455048#0.15 -950235705#0 950238177#1 950238177#1.12 -950235699#5 950235703#0 950235703#0.10 950235703#0.22 950235703#0.33 950235703#0.48 950235703#0.64 950235703#0.87 950235703#0.105 950455053 950235692#2 950235692#3 950235692#4 -45344273#35 -45344273#35.27 45344278#0 45344278#0.58 45344278#0.62 45344278#0.65 -903341095#2 950780326#2 45344278#3 45344278#4 45344278#5 45344271#17 45344276#0 -950759346#1 -950759346#0 -950806855#3 45344277#2 45344277#3 45344277#4 -950806859 -950806859.27 -950806859.38 950235722#1 950235722#1.5 950235722#1.8 950235722#1.13 950235722#1.26 950235722#2 -45344271#13 -45344271#13.24 950235723#0 950806860#1 -950806850#0 -45344271#11 897252880#7 897252880#7.68 950238184#0 950238180#4 950238180#4.24 950238180#5 950238180#5.14 950238178#1 950238178#3 950238179#0 950238179#1 -950235701 -950235699#1 950235695#0 -950235697#2 950732875#0 950732875#1 -950235694#1 950235695#3 -45344336#5 -45344336#4 -45344336#3 -45344336#2 -45344336#1 -950238193#2 -950238193#1 -950238193#0 45344280#14 45344280#14.13 45344280#15 45344283#5 45344283#6 45344283#6.72 45344283#6.89 45344283#6.131 950233989#0 950233989#1 950233989#1.12 950233989#1.21 950318421#0 950318421#0.10 950318421#0.18 950318421#0.29 950318421#0.39 950318421#1 -950233988#1 -950233988#1.32 -950233988#0 45344272#5 950389247#0 950389247#0.52 950389247#0.95 950389247#0.101 950389247#0.109 -951441775 -951441775.15 -951441775.28 -951441775.39 -951441775.47 -951441775.60 951381432#1 951381432#1.2 951381432#1.5 951381432#1.8 -951370961#1 -951370961#0 -897252852#5 897252849 -897252850#2 -897252850#2.11 -897252850#2.29 -897252850#1 -897252850#1.5 -950389249#4 -950389249#4.31 -950389249#4.34 -950389249#3 -950389249#3.3 -950389249#3.22 -950389249#3.25 -950389249#2 -950389249#2.2 -950389249#1 -950389249#1.5 -950389249#1.8 -950389249#1.11 -950389249#1.14 -950389249#1.33 -950389249#0 -950389249#0.2 -950389249#0.5 45344272#8 45344272#8.32 897252852#0 897252851 -45344304#0 45344272#10 45344272#10.38 45344272#11 45344272#11.35 951384610#0 951404495 -702632123#0 45344272#13 45344272#13.4 45344272#13.35 45344298 896892974 971495602#11 971495602#12 971495602#12.26 971495602#12.77 951442813 951442812#0 -896786335#50 -896786335#49 -896786247#9 -896786247#9.8 -896786247#9.17 -896786247#9.75 -896786247#9.157 -896786247#8 -896786247#7 -896786247#7.2 -896786247#6 -896786247#6.66 -896786247#6.103 908869245 908869245.23 908869249#1 -908869246 -908869247 -908869248#2 -908869248#1 -908869248#1.4 -908869248#1.6 -908869248#1.9 -908869248#1.11 -908869248#1.19 -951358827#2 -951358826 -951358826.10 -951358826.13 -951358826.16 -951358826.19 -951358826.36 -951358826.40 -951358826.44 -951358826.49 -896786335#42 -896786335#42.22 896892983#0 896892983#0.10 896892983#1 896892983#1.19 -951421976 896892982#2 908869238 908869238.11 -908869250#2 -908869250#2.29 -908869250#2.76 -908869250#2.143 908869244#0 -908869233 -896786247#0 -896786247#0.33 -45378649#11 -45378649#11.22 -45378649#10 -45378649#10.20 -45378649#9 -45378649#9.7 896786248#0 896786248#0.6 896786248#0.16 896786248#0.93 896786248#0.127 896786248#0.165 896786248#0.179 896786248#0.211 896786248#1 896786248#1.30 896786248#1.43 -896786335#34 -896786335#33 -896786335#32 -896786335#32.17 951355291 951355291.25 951355291.31 951355291.36 951355291.46 951355291.50 951355291.55 951355291.60 951355291.65 -908869252#1 -908869252#0 -908869252#0.17 -896786335#30 -896786335#29 -896786335#29.17 -896786335#28 951358824#0 951358824#0.11 951358824#0.16 951358824#0.21 951358824#0.29 951358824#0.41 951358824#0.47 951358824#0.52 951358824#1 -896786265#5 -896786265#4 -896786265#4.59 -896786265#2 -896786265#0 909024253#0 951995490#0 951995490#1 951995490#1.10 951995490#1.14 951995490#1.17 951995490#1.20 909024250#2 909024250#4 909024250#5 909024250#6 909024239#0 909024239#1 909024239#1.17 -909024237#1 -909024237#1.34 -909024237#1.71 -909024237#1.74 -909024237#1.78 -909024237#1.82 877398366#1 877398366#1.15 877398366#2 877398366#2.36 877398366#3 951995475#4 904371460#5 -896786328#3 -896786328#3.70 904371467#0 904371464 896786325#1 896786325#2 -896786324#1 -896786324#0 -896786324#0.19 -896786324#0.132 -896786324#0.177 951951639#0 951951639#1 951951639#3 951951639#4 951951639#6 951946800#1 951946795#4 951946795#6 951946795#7 951946795#9 -951946796#1 951946804 951946804.28 951946804.31 951946804.34 951946804.37 951946795#11 951946795#11.34 951946795#11.40 951946795#11.45 896786337#10 896786337#10.21 -951887700#20 671756019#0 -951961251#1 951961247#0 951961247#1 951961247#1.3 951961247#2 951951644#2 951951644#2.2 951951644#2.5 -951961252 951961249#1 951961249#1.17 951961249#1.19 951961249#1.21 951961249#1.24 -951961255 -951961255.19 -951961255.22 -951961255.25 -951961255.27 951961248#1 -876509484#6 -876509484#6.3 -876509484#6.8 -876509484#6.12 -876509484#6.15 951878264#0 951878264#0.74 951878264#2 -951878263#3 -951878266#4 -951878266#4.37 -951878266#2 -951878266#1 -951878266#1.39 -951878266#1.47"/>
</vehicle>
<vehicle id = "veh5" type= "veh_passenger" depart="3605" >
<route edges =" 951370989 951370989.40 951370989.47 951370989.53 951370989.56 951370989.62 951370989.64 951370989.67 -902433320#1 -902433320#0 902433321#2 45342799#21 45342809#0 45342809#1 45342809#2 45342809#3 45342809#4 45342809#5 45342809#6 45342809#7 -45342814#5 -45342814#4 -45342803#5 -45342803#4 -45342803#3 45342820#0 45342820#1 -45342822#1 -45342822#0 -45342831#2 -951417482#2 -951417480#1 -951417480#0 -45342805#3 -45342805#2 951417479 45342809#16 45342833#0 45342833#1 45342833#2 45342824#1 45342824#2 45342824#3 45342823#2 45342828#1 45342828#1.100 -951384596#1 -951384596#1.24 -951384596#1.31 -951384596#1.36 -951384596#1.46 -951384596#1.54 -951384596#1.60 -951384596#1.72 -951384596#1.107 -951417467 -951417467.14 -951417467.15 -951417467.17 -951417467.18 -951417467.21 -951417467.23 -951417467.24 -951417467.25 -951404491 -951404491.16 -951404491.28 -951404491.40 -951404491.51 -951384599#0 700249213#9 700249213#10 -951404492 -951417468 -951417468.27 -951417468.30 -951417468.32 -951417468.34 45342808#8 45342808#9 45342808#10 45342808#11 45342808#11.24 45342808#12 -897252871 -897252870 -45344310#2 -45344310#1 -45344310#0 -45344310#0.10 -45344310#0.18 -45344310#0.30 -45344310#0.41 -45344310#0.52 971495602#8 971495602#8.24 971495602#8.86 -313316104#6 -45378650#5 -45378650#5.11 45378646#0 45378646#0.20 45378646#1 -908846596#4 45378645#1 45378645#1.23 45378645#1.76 45378647#3 45378646#3 -908846598#1 -908846598#1.20 -908846598#1.40 -908846598#1.44 -908846598#1.67 -908846598#1.96 -908846598#1.126 -908846598#0 -908846598#0.31 908560901#2 908560901#2.40 908560901#3 908560901#4 908560901#4.8 951435501 951435501.56 -45378647#0 -45378647#0.12 -45378647#0.51 908560901#6 908560901#6.50 908560901#6.91 908560901#6.131 908846596#0 908846596#0.25 908846596#1 45378650#1 -908846593 -908846593.73 908560901#8 908560901#8.23 908560901#8.56 -313316104#0 -313316082 -45378649#12 896786296#0 896786296#1 896786296#1.36 -896786262#6 -896786262#6.15 -896786262#5 -896786262#4 -896786262#4.31 -896786262#3 -896786262#3.9 -896786262#1 -896786262#0 -896786262#0.33 -896786262#0.115 896786260#3 896786260#4 896786260#4.25 -909024254 -909024254.11 -909024254.37 896786266#3 896786266#4 896786266#5 -896786260#0 -896786260#0.52 896786257#4 909024248 909024248.50 909024287#0 909024287#0.8 909024287#0.15 909024287#0.65 909024287#2 -896786283#2 -909024289#4 -909024289#3 -909024289#3.21 -909024289#2 -909024288#1 -909024288#0 -896786287#2 -896786287#1 951995479#1 896786288#0 896786288#0.26 896786288#0.48 -896786291#0 -896786291#0.44 -896786292#0 -896786292#0.39 -951995475#1 -951995475#1.25 -951995475#0 896786293#2 896786293#2.8 896786293#2.28 896786293#2.36 896786293#2.45 896786293#2.48 896786293#2.52 -45378665#2 -45378665#2.36 -45378665#1 -909024250#6 -909024250#5 -909024250#4 -909024244#1 -909024244#1.5 -909024244#1.34 -909024244#1.68 909024243#0 951995495 896786335#19 -896893011#1 -896893011#0 -896893011#0.52 -896893013#2 896893010 896893010.28 896893010.97 -896893012#5 -896893012#5.11 -896893012#4 -896893012#3 -896893012#2 -896893012#2.9 896786300#3 896786300#3.17 -896786335#14 -896786335#14.27 -896786335#13 -896786335#12 -896786335#12.15 -951983583#1 -951983583#0 -951983583#0.24 -951983583#0.28 -951983583#0.32 -951983583#0.38 -877396860#0 -877396860#0.8 -877396860#0.28 -896786311#13 -896786311#13.20 896786303#0 951983586#0 951983588#0 951983589#0 -896786304#7 -896786304#7.31 -951983587#6 -951983587#5 -951983621#1 -951983621#1.8 -951983621#1.12 -951983620#0 951983592#1 951983592#3 951983592#3.4 951983592#3.8 951983592#3.24 951983592#3.30 -951988579 951988578#1 -951988576#1 -951988574#0 -896786310#4 -896786310#4.9 951983615 951983615.81 951983615.94 951930617#12 -896786309#7 -896786309#7.27 -896786309#7.77 -896786309#7.88 -896786309#6 -896786309#6.3 -896786309#6.30 -896786309#6.51 -896786310#2 -896786310#2.10 -896786310#2.24 -896786310#1 -896786310#1.7 -896786310#1.40 -896786310#1.58 896892995#0 896892997#1 -896892998#2 -896892998#2.10 896892993 896892993.48 896892993.74 -896786307#4 -896786307#4.9 -896786305#1 -896786305#1.42 -896786305#0 -896786305#0.72 -896786305#0.81 -896786309#0 -896786304#1 -877388976#1 -877388976#1.14 -877388976#1.34 -877388976#1.74 896786308#3 896786308#3.37 896786308#4 896786308#6 896786308#6.25 896893005#0 896893005#0.7 896893005#0.25 896893005#0.69 896893005#1 -877388728#10 -877388728#10.145 -877388728#9 -877388728#7 -877388728#5 -877388728#5.9 -877388728#5.30 -877388728#4 -877388728#4.18 896893019#0 896893019#0.19 951998769#0 951998769#1 896892989#1 896892989#1.36 -896786297#8 -951998767#0 -896892988#0 951998768#0 -896893025#0 896786297#11 951998773 951998773.36 951998773.40 951998773.44 951998773.49 -896893024#1 -896893023#1 -896893023#0 -896893023#0.13 -877388728#2 -877388728#2.97 -877388728#1 -877388728#1.74 -952213570#1 -896893020#0 -896893020#0.20 -896893020#0.43 -896893021#3 -896893021#3.18 -896893021#3.35 -951988616 -951988616.11 -951988616.32 -952248230#2 -952248230#1 -951988589 -951988589.30 -951988589.34 -951988589.37 -951988589.41 -951988590#3 -951988590#1 896893020#2 896893020#2.56 896893020#2.154 896893020#2.219 896893020#2.250 -951988591#2 -951988591#2.11 -951988591#2.25 -951988591#2.40 -951988591#1 -951988591#1.3 -951988591#0 896786309#10 896786309#10.113 896786309#11 -951988597#1 -951988597#0 -951988596#0 -951988595#1 -951988595#1.5 -951988595#1.15 -951988595#0 -951988595#0.6 896786309#16 896786309#16.19 896786309#17 -951935274#7 -951935274#6 951988607#3 -951988600#0 -951988600#0.43 -951988600#0.49 -951988600#0.52 -951988600#0.57 -951988602#0 -951988602#0.11 -951988602#0.36 -951935274#4 -951935274#4.3 -951935274#4.24 -951935274#4.29 -951935274#4.35 -951935274#4.66 -951930627#1 -951930627#0 951988606#0 951988604#2 951988604#2.18 951988604#2.21 951988604#2.24 951988604#3 951988604#4 -951930622 951930618#0 951930618#0.26 951930618#0.29 951930618#0.32 951930618#0.35 951930618#1 951930618#2 951930617#7 951983611#0 951983611#1 951983612 951983612.19 951983612.23 951983612.27 896786310#8 896786310#8.5 877389028#0 877389028#0.17 877389028#1 877389028#1.12 877389028#1.31 -896786310#13 -896786310#12 -896786310#12.9 -896786310#10 -896786310#10.4 -896786310#10.15 -896786310#10.32 -951983616#2 951983617#0 951983617#0.43 877398739#1 877398739#2 877398739#2.30 -951983590 -896786311#9 951976010#0 -951976011#0 896786321#2 -896786320#3 -896786320#3.5 951930673#0 -951930675 -877396172#3 896786315#0 896786315#2 -951976005 -896786317#0 -896786316#2 -896786316#1 -896786316#1.33 -896786314 -951930663#1 -951930662#1 -951930662#1.134 -896786312#2 -896786312#2.6 -896786312#2.21 -896786312#1 -896786312#1.17 -896786312#1.24 -896786312#0 -896786312#0.11 -896786312#0.35 -896786312#0.60 -896786312#0.135 -896786311#2 -896786311#1 -896786311#1.19 -896786311#0 -896786311#0.35 951983599 -951935291#3 -951935291#3.17 951930682#0 951930682#1 951930681#2 951930681#3 951930681#3.13 951983603#0 951983603#0.16 951983603#0.21 951983603#0.25 951983603#0.33 951983603#0.35 951983603#0.37 951983603#0.40 951983603#1 951930680#1 951930680#2 951930680#2.22 951930680#3 951930680#3.7 951930681#0 -951935254#1 -951935254#0 -951935254#0.6 -951935254#0.15 -951935254#0.25 877396480#3 877396480#4 877396480#5 877396480#5.5 877396480#5.10 -951935256#2 -951935257#1 -951935291#1 877389028#11 877389028#11.9 -951935289#1 -951935289#0 951935286#1 -951935287 -951930661#3 -951930661#3.14 -951930661#2 -951930661#0 877395784#7 877395784#8 877395784#8.44 877395784#9 877395784#10 877395784#10.31 877395784#10.53 951946825#0 951946825#1 -951946816#4 951946844 877399011#1 951946810#2 -896786337#14 -896786337#14.40 -896786337#14.111 -952365020 -952365021 -951878231#2 951868619#0 951868620#0 -951868611#1 -951878231#0 951951645 -951951643#3 -951951643#2 -951951643#1 -951951643#0 -951878263#7 -951951649 951951648#1 -951951642#0 -951878263#5 -951878269#15 -951891772#2 -951891774 951891771#2 951930613 -951878269#9 -951930614 -951878270#3 877401978#0 951887660#0 951887660#2 -951887662 -951887661#1 -951887661#0 951887659#0 951887659#1 -951891763#1 -951891765#2 -951891765#1 951887656#2 951891764#4 -951878269#6 -951878269#5 -951878269#4 951878272#0 -951887656#0 -951887655#3 -951887655#2 951887657 951878272#4 951878272#5 -904196454#1 -904196454#1.67 -904196454#0 700825962#5 700825962#5.39 700825962#6 700825962#7 700825962#7.15 700825962#7.28 700825962#8 700825962#8.3 951887700#0 951887700#1 -951887701#0 951887666#1 951887666#2 951887664#1 904196454#5 904196454#6 -951887665 -951961236#0 951887700#5 -904196453#13 -904196452#8 -904196452#8.9 -951887672#4 -951887672#3 -951887672#2 951887667#7 -904196453#11 951887674#0 951887674#1 951887674#1.3 951887674#1.7 951887674#2 951887674#3 951887674#3.83 951887674#3.90 951887674#3.96 951887674#3.101 951887674#3.111 951887674#3.114 951887674#3.118 -877401978#3 -877401978#3.69 -951887664#3 951887663#1 951887663#2 951887661#3 951878266#0"/>
</vehicle>
<vehicle id = "veh6" type= "veh_passenger" depart="7210" >
<route edges =" -45342801#4 -45342801#3 -45342801#2 -951368604 -951368605#0 -45342811#0 -45342801#0 -45342798#1 45342840#0 -45342810#2 -45342810#1 -45342810#0 45342809#5 45342809#6 -951370985#1 951441769 -45342836#0 -45342818#1 -45342818#0 45342798#5 45342813#0 45342817#0 45342816#0 45342816#1 -45342814#2 -45342814#1 44740902#11 -44740885#6 -44740885#5 -44740885#5.33 -671399053 -671399054#0 -671399058#0 -44740885#3 -44740901#6 -44740891#4 974189220#1 -44740896#2 -44740896#1 -44740896#0 -44740901#4 -44740901#3 -44740901#2 -671399049#1 -671399049#0 -671399051#0 -44740942#1 -44740901#0 -313316089 -951438761 -44740929#5 -44740929#4 -44740929#3 -44740929#2 951438762 951438763#1 951438763#1.5 44740967#2 44740967#3 44740967#4 44740922#5 44740922#5.74 44740922#6 44740922#7 -44740930#10 -44740930#9 -44740930#8 44739167#10 -44740926#5 44740925#2 44740955#0 44740955#1 951358804 -44740926#2 -44740926#1 44740923#2 44740923#3 -951438764 -951438764.47 -951438764.119 -313316091#14 -313316091#14.20 -313316091#12 -313316091#11 951438765 44740948#1 -44740940#1 44740945#0 44740946#0 44740946#1 -313316091#8 -313316091#8.29 -44739167#15 -44739167#15.17 44740949#0 44740949#1 -44740953#7 44740952 -44740951#0 -44740953#4 -44739167#12 -44740927#13 -44740927#12 951358802 -951358805#0 951358806#1 -44740926#7 -44740928#0 -44740928#0.75 -44740930#6 44739163#15 -44740981#1 44740983#0 -44740985#1 44740987 44740927#8 44740927#9 44739163#18 -44740918#2 -44740918#1 44740931#0 -44740919#0 -951358792 -951358792.26 -951358792.42 -951358792.53 -951358792.66 896892969#18 45340579#18 45340579#18.164 45340579#19 45340579#19.12 45340579#19.84 909019791#0 -909019790#1 -909019790#0 -909019790#0.12 -44740934#4 -44740934#3 -44740934#3.33 -44740934#2 -44740934#1 -44740934#1.2 -668599375#2 -668599375#2.17 -668599375#1 -668599375#1.9 -668599375#0 44740916#11 -971495601#6 -971495601#5 -971495601#3 -44740910#8 -671410531#2 -671410531#1 -671410531#1.53 -671410531#1.57 -671410531#1.63 671410530 -909019784#1 -909019784#1.47 -909019784#0 313316100#8 313316100#8.72 -971495601#0 -313316086 -44739144#26 -44739144#24 903953326#0 903953326#1 -903953325#3 909778546#0 909778546#1 -909778547#0 -44739144#19 -44739144#19.14 -44739144#18 -44739144#16 -44739144#15 -44739144#13 -44739144#12 -44739144#11 -909778559#1 672815156#0 44740912#7 44739144#9 -904371478#2 -904371478#2.24 904371477 904371477.56 -877396860#20 -877396860#20.1 -904371479#3 -904371474#3 -904371474#2 -904371474#1 904371473#0 904371473#1 904371473#1.24 904371473#3 -904286388#0 904286386#7 -671191683#1 -671191683#1.8 -671191683#1.21 951973451#0 951973451#1 -951992361 -904371488#6 -904371488#5 -904371488#4 -904371488#2 -904371488#2.8 -904371488#2.11 -904371488#2.18 -904371488#1 951992356 951992356.11 951992356.20 951992356.29 896786290#0 -904286381#6 904286380#0 904286380#1 904286380#1.17 904286380#1.44 -877396860#12 904286382#2 -904286378#1 -904286378#0 904286380#3 904286380#3.65 -877398366#14 -877398366#14.72 -877398366#13 671191680#15 671191680#15.58 671191680#16 671191680#16.17 671191680#16.20 671191680#16.22 671191680#16.24 671191680#16.31 -896786269#2 876614861#1 876614861#2 876614861#3 876614861#3.7 -951433465 -896786283#3 -896786283#3.11 -896786283#2 -909024289#4 -896786286#4 -896786286#4.15 -896786286#4.66 877396033#5 877396033#5.33 909024288#0 909024288#1 -909024289#1 -909024289#1.25 -909024289#1.69 -909024289#1.74 -909024289#1.90 -909024289#1.103 -909024289#1.130 -909024289#0 -909024289#0.2 -909024289#0.5 -909024289#0.10 -896786293#0 896786292#2 896786292#2.23 896786292#2.61 -877398520#2 -877398520#2.20 -877398520#0 -877398520#0.16 -904371459 -904371459.17 -904371459.33 -904371460#1 951995474 -877396860#7 -877396860#6 904371465#0 904371463#0 904371463#1 904371463#1.15 -671191680#11 -671191680#9 -671191680#8 -671191680#6 -896786326#1 -896786326#0 -896786328#0 -896786328#0.177 -951951638#10 -951951638#10.18 -951951638#9 -951951638#8 -951951638#7 -951951638#5 -951951638#4 -951946798#0 -952002224#3 -952002224#3.30 -952002224#3.48 -952002224#3.80 -952002224#2 -952002224#2.36 -952002224#1 896786337#4 951951638#0 951951638#1 951951638#2 952000398 951951639#13 -951946794#0 951946792#1 896786337#8 896786337#8.8 -951887683 -951887684 -951887682#6 -951887682#5 -951887682#4 -951887682#3 -951887682#2 -951887682#2.37 -951887682#1 -951887682#1.2 -951887682#1.5 -951887682#0 -951887700#14 -951961240#3 -951961240#1 -951961245 951891772#0 -951891773 -951891771#0"/>
</vehicle>
<vehicle id = "veh7" type= "veh_passenger" depart="7210" >
<route edges =" 45342801#5 45342801#5.32 902433317#3 951421968#0 951421968#1 951421968#1.20 -951381446#1 -951368598#0 902433317#6 902433317#7 902433317#8 902433317#8.29 951368593#1 972507120#2 972507120#3 -951366780#1 -951366780#1.2 -951366780#1.41 951366779#0 951366779#1 45342812#1 45342811#2 45342811#2.66 -45344273#22 -45344273#22.6 -45344273#22.18 -45344273#22.35 -45344273#21 -45344273#21.28 -951441770 45342810#5 -973399407#2 -973399407#1 951366784 -44740885#14 -44740885#14.36 -44740885#14.40 -44740885#13 -44740885#13.4 -44740885#13.21 -44740885#13.24 -44740885#13.27 -44740885#13.31 -44740885#13.35 -44740885#13.56 -44740885#13.59 -44740885#13.62 -45342810#10 -45342810#10.21 -45342810#8 -45342810#8.5 -45342810#7 -45342810#7.44 44740885#17 902433295#0 902433295#0.35 902433295#1 902433295#2 45344329#4 45344329#5 -951381435 -45344331#2 -45344331#1 -45344331#0 45344326#3 699875133 -699875130#0 -699875130#0.26 -699875131#0 897172091#9 -950400190 -45344335#2 -45344335#1 -950235689#2 -950400194#1 -950400193#1 -950400193#0 950400195#1 950400195#1.6 950400195#1.15 950400195#1.29 950400195#1.40 950400195#1.46 950400195#1.55 950400195#1.60 950400195#1.66 950400195#1.74 950400195#1.81 950400195#2 950400195#2.6 45344297#2 45344297#2.7 45344297#2.17 45344297#2.22 45344297#2.28 45344297#2.54 45344297#2.118 950399187#0 950399187#1 951141449 951141449.18 951141449.22 951141449.26 700254525#8 700254525#9 950235690#0 950235690#0.11 950235691#0 950235691#0.22 950400191 950400191.10 950400191.18 950400191.24 950400191.29 700254525#12 700254525#12.12 950235692#0 -950235694#2 -950732875#1 -950732875#0 -950235697#0 950235692#3 -950235699#3 950235701 -950238179#1 -950238179#0 950238178#4 950238178#4.14 45344278#2 45344278#2.33 45344278#3 -950238182#3 -950238182#2 -950238182#2.10 950780323 950780323.8 950780323.15 950780323.22 950780323.29 -950238184#2 -950238184#2.9 -950238184#2.19 -950238184#2.27 -950780324#0 -950780324#0.30 950238181#1 -950238182#0 -950238178#1 -950238180#5 -950238180#5.16 -950238180#4 -950238180#4.38 -950238180#3 -950238180#3.35 -950238180#3.57 -950238180#3.61 -950238180#3.64 -950238180#2 -950238180#1 -950238180#0 45344278#5 -950806855#5 -950806855#3 -45344277#1 -45344277#0 -45344276#2 903373125#0 903373125#1 903373125#1.14 903373125#1.24 903373125#1.33 903373125#1.41 903373125#1.50 950235713#0 950235713#1 -950235714#2 -950235714#1 -950759347#1 -950759347#1.4 -950759347#1.8 -950759347#1.13 -950759347#1.29 -950759347#1.34 -950759347#1.39 -950759347#1.44 -950759347#1.51 -950759347#1.81 -950759347#1.85 -950759347#0 -950759347#0.3 897252886#0 897252886#0.21 897252886#0.44 897252886#1 897252886#1.30 897252886#1.51 950239855 897252882#5 -950235708#2 -950235708#1 -950235708#0 -950235708#0.22 -950235708#0.52 -950235708#0.57 -950235708#0.62 -950235708#0.67 -876567894#55 -876567894#55.10 -876567894#55.28 -876567894#55.80 -876567894#55.100 -876567894#55.109 -876567894#54 -876567894#54.6 -876567894#54.20 -951381438 -951381438.18 -951381438.24 -951381438.29 -951381438.35 -951381438.41 -951381438.47 -951381438.53 -45344271#28 -45344271#28.43 950757969#0 950757969#1 950757969#1.14 -950235712#3 -950235712#3.27 -950235712#3.30 -950235712#3.34 -950235712#3.37 950757965 -950757966#0 950757969#3 950757969#4 950757969#5 950235711#2 950235711#3 951132942#3 951132942#4 -950757960#1 -950757960#0 -902433292#8 -950238194#1 950757958#1 -950759350#2 -902433292#6 -902433292#5 876614905#0 876614905#0.63 876614905#1 950235717#0 950235717#0.7 950235717#0.15 -950759342 -950759342.21 -950759342.36 -950759342.46 902822419#5 902822419#5.3 902822419#5.36 950872171#1 950872171#1.7 950872171#1.16 -950806849#0 -950806849#0.8 -950806849#0.17 -45344276#6 950235725#0 950235725#1 950235725#2 -950806857 45344277#3 950806851 950806851.32 950806851.35 950806851.38 950806851.40 950806851.42 950806852#1 950235725#5 950235725#7 -897252880#3 -950235727#0 950641816#6 950641816#7 950235729#1 950235729#2 950235729#3 950235730#1 -950872165#1 -950732877 -950732877.38 -950732877.41 -950732877.44 -950732877.52 -950732877.56 -950732877.58 950235729#5 -45344285#4 -45344285#2 -45344285#1 -950235732#4 -950235732#3 -950235732#2 950235733#1 950641812#3 950641809#0 -950641810 -950641810.14 -950641810.18 -950641810.22 -950641810.27 -950235732#0 950641816#10 950641816#11 950641816#12 950641816#12.39 950641816#13 950641816#13.45 -45344282#0 -45344272#0 -45344273#40 -950235700#3 950235699#0 950235695#0 950235695#1 950235695#2 -950235694#0 -950235700#0 -45344336#4 -45344336#3 -45344336#2 950553578#1 950553577#0 950553577#0.25 -950553576 -45344283#2 -45344283#1 -45344283#1.3 -950238191 -950238191.39 950553577#2 45344282#2 45344282#2.1 45344282#2.36 -950238187 950238186#0 -950241847#3 45344284#9 45344284#10 45344284#11 45344284#12 45344284#12.58 950872160#0 950872160#1 950872160#1.50 950872160#1.69 950872160#2 950872160#2.4 950872160#3 950872160#4 950872160#4.25 950872160#5 -950241834#3 950929127#7 -950241836 -950241837#0 -950241834#1 950241821#2 950241832#2 950241832#2.33 950241832#3 -951014858#3 -951014858#3.18 -951014858#3.23 -951014858#3.27 -951014858#3.30 -951014858#3.35 951014861#0 951014861#1 -950241831#3 -950241831#2 -950241821#5 -950241828#0 -950929127#3 -950929127#3.15 -950929127#2 -950929127#1 950241823#5 950241823#6 950241823#6.41 950241821#8 950241821#9 950241821#10 950241821#10.52 -951043907#1 -951043907#1.5 -951043907#1.10 -951043907#1.17 -951043907#1.21 -951043907#1.25 -951043906#1 -951043906#1.11 -951043906#1.14 -951043906#1.17 -951043906#1.19 950241819#5 951014855#2 950241823#9 -950243393#4 -950243393#4.70 -950243393#4.113 971905923 -951014855#0 45344271#2 45344271#2.26 45344271#3 45344271#3.47 45344271#4 -902433322#2 -902433322#1 -902433322#1.57 950241861#0 950241861#1 951043905#0 950241859#0 950241859#0.58 950241859#0.62 950241859#0.66 950241859#1 -950241847#0 -950241848#4 950241855#0 950241855#1 -950241851#1 -950241851#0 950241857#4 950243393#1 950243393#1.48 950243393#1.98 950243393#2 950243393#2.16 950243393#2.38 950243393#2.63 950243393#2.109 -45344271#0 -897252878#8 -897252878#8.12 -950241202#5 -950241202#3 -950241202#3.7 -950241202#2 -950241202#2.5 -950241202#2.10 -950241202#2.15 -950241202#1 -950241202#1.30 -950397766 -950397767#0 -950397769#1 -950241205#0 -897252878#6 -897252878#6.31 -897252878#5 -897252878#5.5 -897252878#4 -897252878#4.26 -950396018#3 -950396018#1 950397771 950397771.35 950397771.39 950397771.42 950397771.45 -950396021#1 -950396021#0 -950396021#0.23 -950396021#0.28 -950396021#0.34 -950396021#0.39 -950396021#0.45 -950396021#0.50 -950396021#0.55 -950396022#0 -897252878#0 -45344282#7 -950394096#1 -950394096#0 45344280#4 950241866#0 950241866#1 950241866#1.32 950241866#3 950241866#3.97 950241866#3.100 950241866#3.104 950241868#0 950394090#0 950394090#1 950241865#2 950241869#3 950241869#3.5 950241869#3.10 950241869#3.17 -950394093#2 -950394093#2.45 950394092 950241866#7 950241866#7.10 950241866#8 950241866#9 -45344284#5 -45344284#4 -950238192#4 -950238192#3 -950238192#2 -950238192#2.18 -950238192#2.21 -950392117#1 950392116#0 950392116#0.39 -950241229#1 -950241229#0 -950241233#0 45344280#11 45344280#11.11 45344280#11.23 45344280#12 45344280#13 45344280#14 45344280#14.13 45344280#15 45344283#5 -950553582#2 -950553582#2.27 -950553582#1 -950553582#1.2 -950553582#1.5 -950553582#1.66 -950553582#1.76 -950553582#1.84 -950553582#1.90 -950553582#1.96 -950553582#1.103 -950553582#1.114 -950553582#1.120 950553581#0 950553581#0.7 950553581#0.14 -700278833#5 -700278833#5.31 -700278833#5.45 -700278833#4 -700278833#3 700278832#0 700278832#0.21 700278832#1 -950392123#2 -950392123#2.17 -950392123#2.22 -950392123#2.28 -950390889#3 -950390889#3.20 -950390889#3.34 -950390889#3.45 -950390889#1 -950390889#1.12 -950390889#1.34 950392120#0 950392120#0.9 950392120#0.18 950392120#0.27 950392120#0.37 950392120#0.53 950392120#0.76 -950392118 -950392118.5 -950392118.8 -950392118.10 -950392118.14 -950392118.25 -950392118.28 -950392118.31 950392121#1 -951132943 -951132943.7 950241220#2 950241220#3 950241220#4 -45344280#2 -45344280#2.7 -45344280#0 -45344280#0.24 -45344280#0.53 897252879#13 897252879#14 897252879#14.50 897252879#15 897252879#17 897252879#18 897252879#18.162 897252879#19 897252879#19.29 897252879#20 897252879#21 897252879#21.85 897252879#22 897252879#23 896892972 896892973 896892973.27 896892973.31 -896786335#50 -896892981#13 -896892981#13.5 -896892981#13.13 -951349911#1 -951349910#1 -951349910#1.29 951354767 951354780 951354780.16 951354780.26 -896786335#47 -896786335#46 951358828 951358828.11 951358828.13 951358828.16 951358828.19 951358828.22 951358828.26 951358828.29 951358828.32 951358828.42 951358828.46 951358828.50 951358828.53 951358828.57 -896786247#8 -896786247#7 -896786247#7.2 -908869249#2 -908869249#2.8 -908869249#2.14 -908869249#2.28 -908869246 -908869247 -908869248#2 -908869248#1 -908869248#1.4 -908869248#1.6 -908869248#1.9 -908869248#1.11 -908869248#1.19 -951358827#2 -951358826 -951358826.10 -951358826.13 -951358826.16 -951358826.19 -951358826.36 -951358826.40 -951358826.44 -951358826.49 -896786335#42 -896786335#42.22 896892977#0 896892977#0.14 896892977#1 896892977#1.45 896892977#1.56 -908869250#4 -908869250#4.38 -908869250#3 -908869238 -908869238.92 -896786335#39 -896786335#39.27 -896786335#37 -896786335#36 -896786335#34 -896786335#33 -951354773#3 -951354773#3.20 -951354773#3.23 -951354773#3.26 -951354773#3.28 -951354773#3.30 -951354773#3.32 -951354773#3.34 -951354773#3.38 -951354773#3.40 -951354773#3.43 -951354773#3.45 -951354771#1 -951355290 -951355290.28 -951355290.30 -951355290.31 -951355290.32 -951355290.33 -896893028#3 -896893028#3.26 -896893028#1 -896893028#1.14 -896893028#0 -896893028#0.19 -877388646#5 -877388646#5.83 -877388646#3 -896893026#2 -896893027#1 -896893027#1.13 -896893027#0 -896893027#0.51 -896893027#0.118 896786297#4 896786297#4.10 896786297#4.18 896786297#4.21 896786297#4.23 -896893005#4 896893015#0 896893015#1 896893015#1.26 896893015#2 896893015#3 -896893018#0 877388728#14 896786335#26 951358823 951358823.10 951358823.15 951358823.20 951358823.26 951354763#3 951354763#4 951354763#5 -951995492#0 -951995491#0 -896786266#12 909024250#0 909024250#1 909024250#2 909024250#4 909024250#5 909024250#6 909024239#0 909024239#1 909024239#1.17 909024239#2 909024239#2.40 -951983585 -951975994 896786325#3 -896786323#0 -896786323#0.137 -896786323#0.139 -896786323#0.141 -896786324#0 -896786324#0.19 -896786324#0.132 -896786324#0.177 951951639#0 951951639#1 951946802 951946795#2 -951946801 951951639#6 951951639#7 951951639#8 951946799 951946795#6 -951946798#2 951951639#10 951951639#11 951946796#0 951946796#1 951946795#10 951946795#11 951946795#11.34 951946795#11.40 951946795#11.45 896786337#10 896786337#10.21 -951887700#20 -951887700#19 -951887686#1 -951887688#2 -951887688#1 951887689 951961234#0 951961235 -671756019#3 951961253 951961253.63 951961253.68 951961253.73 951961233#1 -951878265#2 -951878265#1 -951878266#5 -951878266#5.22 -951878266#5.29 -951878266#5.37 -951878266#4 -951878266#4.37 -951878266#2 -951878266#1 -951878266#1.39 -951878266#1.47"/>
</vehicle>
<vehicle id = "veh8" type= "veh_passenger" depart="7210" >
<route edges =" 951370989 951370989.40 951370989.47 951370989.53 951370989.56 951370989.62 951370989.64 951370989.67 -902433320#1 -902433320#0 902433321#2 -45342799#20 -45342797#4 -951368600#1 -951368603#1 -951368603#0 -45342835#1 951368602#0 951368602#1 951368601#1 -45342797#2 -45342797#1 -45342797#0 -45342834#1 -45342834#0 44740902#8 44740902#9 44740902#9.47 -951370984#2 -951370984#1 -45342816#0 -45342817#0 -45342813#0 -45342798#5 45342818#0 45342818#1 45342818#2 45342818#3 -45342814#4 -45342803#5 44740885#9 44740885#9.112 45342809#9 45342809#10 45342809#10.44 45342809#11 -45342831#3 -45342831#2 -45342831#0 45342804#2 45342832#0 45342832#1 45342822#1 45342822#2 -45342821#0 -45342803#3 -45342803#2 -45342803#1 -45342803#0 45342843#3 -45342804#0 45342808#2 45342805#0 45342805#0.20 951417482#0 951417482#1 -951417480#1 -951417480#0 45342805#4 45342809#14 45342824#0 45342833#3 45342833#4 45342823#1 45342824#4 45342825#2 45342828#0 45342828#1 45342828#1.100 -45344273#6 -45344273#6.40 -45344273#6.59 -951384598#3 -951384598#2 -951404491 -951404491.16 -951404491.28 -951404491.40 -951404491.51 -951384599#0 700249213#9 700249212#0 700249212#1 700249212#3 45342808#9 45342808#10 951370965#0 951370965#0.26 951370965#0.30 951370965#0.33 951370965#0.37 951370965#0.40 951370965#1 951370965#1.28 951370965#1.49 45344314#2 45344314#3 45344314#4 45344314#4.36 -897252868#1 -897252868#1.11 -897252868#1.30 -700249213#3 -45344287#3 -45344287#3.35 -45344287#3.82 897252863#8 -951370968#0 -951370968#0.20 -951370968#0.23 -951370968#0.25 -951370968#0.28 -951370968#0.32 -951370968#0.36 897252862#2 897252862#2.16 897252864#0 897252864#1 897252864#3 -897252871 -897252870 -45344310#2 -45344310#1 -45344310#0 -45344310#0.10 -45344310#0.18 -45344310#0.30 -45344310#0.41 -45344310#0.52 971495602#8 971495602#8.24 971495602#8.86 45340579#6 45340579#7 45340579#7.32 45340579#7.82 45340579#7.134 45340579#7.159 45340579#7.185 45340579#8 45340579#8.28 45340579#8.73 -45378643#7 -45378643#7.12 -45378643#6 -45378643#6.10 -45378643#5 -45378643#5.11 -45378643#4 -45378643#4.5 -45378643#4.18 -45378643#2 -45378643#0 -45378643#0.26 -45378651#11 -951436654#1 -951436654#1.25 -951436654#1.32 -951436654#1.38 -951436654#1.44 -951436654#1.56 -951436654#1.58 -951436654#1.60 -951436654#1.62 -951436654#1.67 -951436654#1.69 -951436654#1.70 -951436654#1.72 -951436654#1.76 -951436654#1.85 -951436654#1.94 -951436654#1.101 -951436654#1.111 -951436654#1.118 -951436654#1.126 -951436654#1.133 -951436654#0 -908560873#0 -908560873#0.16 908560874#2 908560874#2.45 908560874#2.55 908560874#2.79 908560874#2.88 908560874#2.96 908560874#2.115 -45378651#9 -45378651#9.1 908560868#0 908560868#0.13 908560868#1 908560868#1.11 908560868#1.28 908560881#1 908560881#1.17 951347806#0 951347806#0.30 951347806#0.32 951347806#0.34 -951436327 -951436327.3 -951436327.5 -951436327.7 -951436327.22 -951436327.25 -951436327.29 -951436327.34 -951436327.38 -951436327.40 -951436327.51 -951436327.55 -951436327.60 -908560886#1 -908560886#1.3 -908560886#1.6 -908560886#1.11 -908560886#1.25 -908560886#1.40 -908560886#0 -908560886#0.7 -908560888#2 -908560888#2.7 -908560888#2.15 -908560888#2.23 -908560888#2.29 -908560888#2.38 -908560888#2.44 -908560888#2.50 908560867#0 908560867#0.11 908560867#1 -951404468#1 -951404468#1.18 -951404468#1.33 -951404468#1.62 -951404468#1.64 -951404468#1.65 -951404468#1.66 -951404468#1.67 -951404468#1.69 -951404468#1.79 -951404468#1.80 -951404468#1.83 -951404468#1.85 -951404468#1.88 -951404468#1.96 -951404468#1.98 -951404468#1.99 -951404468#1.101 -951404468#1.102 -951404468#1.107 -951404468#1.112 -951404468#1.119 -951404468#1.121 -951404468#1.122 -951404468#1.124 -951404468#1.126 -951404468#1.129 -951404468#1.131 -951404468#1.133 -951404468#1.135 -951404468#1.138 -951404468#1.141 951404467#0 951404467#0.8 951404467#0.12 951404467#0.16 951404467#0.31 951404467#0.34 -951435496#1 -951435496#1.16 -951435496#1.17 -951435496#1.18 -951435496#1.19 -951435496#1.20 -951435496#1.22 -951435496#1.27 -951435496#0 -951435494 -951435494.8 -951435494.19 -951435494.25 -951435494.33 -951435494.43 -951435494.50 -951435494.55 -951435494.60 -951435494.65 313316104#5 313316104#5.24 313316104#5.44 313316104#5.58 -45378650#5 -45378650#5.11 -45378650#4 -45378650#3 -45378650#3.29 -908846595#2 -908846595#2.24 -908846595#1 908846594#0 908846594#1 908846594#1.37 -908846596#0 -908846596#0.31 908560901#7 908560901#8 908560901#8.23 908560901#8.56 -313316104#0 -313316082 -45378649#12 896786296#0 896786296#1 896786296#1.36 896786296#2 896786296#2.35 -896786254#1 -896786254#1.26 951355294#1 951355294#1.19 951355294#1.22 951355294#1.23 951355294#1.24 951355294#1.25 951355294#1.27 951355294#1.28 951355294#1.31 951355294#1.41 951355294#1.42 951355294#1.43 951355294#1.44 951355294#1.45 951355294#1.47 896786257#0 896786257#0.74 896786257#0.128 896786257#0.138 -896786260#3 -896786260#1 -896786260#1.5 -896786260#0 -896786260#0.52 896786257#4 909024248 909024248.50 -45378665#3 -45378665#3.29 -45378665#3.50 896786293#3 896786293#3.29 896786293#4 896786257#7 896786257#7.17 896786257#7.37 896786257#7.44 896786257#7.49 896786257#7.54 -45378665#1 -45378665#0 -45378665#0.39 -45378665#0.75 -896786335#14 -896786335#14.27 -896786335#13 877398366#0 877398366#0.11 -909024237#0 951983583#1 -896786335#11 -896786311#13 -896786311#13.20 -896786311#12 -896786311#12.40 -896786311#11 -896786311#11.60 -896786311#10 -896786311#9 -896786311#8 -896786311#7 -896786311#6 -896786311#6.24 951983602 951930672#1 -951930673#3 -951930673#3.17 -951930673#2 -951930673#2.6 -951930673#1 -951930673#0 951976009#0 951976009#1 -896786335#7 951976007 -951976006#1 -951976008 896786319#2 896786319#4 896786319#5 896786319#5.19 896786316#0 896786316#1 896786316#1.13 -951930664#5 -877396172#0 -877396172#0.15 -896786313#2 -896786313#2.55 -951930663#1 -951930663#0 877395784#12 -951946824 -951946822 -951946821#1 -951946821#0 -951946821#0.2 -951946821#0.6 -951946821#0.9 -951946819#1 951946820#0 951946820#1 -951946816#6 -951946816#6.36 -951946816#6.40 -951946816#6.43 -951946816#6.46 -951946816#5 -951946816#5.8 -951946816#5.11 -951946816#5.14 -951946816#5.18 -951946816#4 -951946816#2 951946827 951946827.47 951946827.51 951946827.55 951946827.59 951946815#3 951946828 -951946787#4 -951946787#3 -951946787#2 -951946787#0 -896786337#17 -896786337#17.3 -951946832 -951946814#0 -951946812#1 -951946813 951946810#1 951946810#2 -896786337#14 -896786337#14.40 -896786337#14.111 -952365020 -952365021 -951878231#2 -951951643#6 951951644#0 -951951642#4 -951951642#3 -951951642#3.15 -951951642#3.18 -951951642#3.20 -951951642#3.23 -951951642#3.36 -951951642#3.39 -951951642#3.41 -951951642#3.43 -951951642#2 876509484#3 -951951650 -951951648#2 -951951642#0 951878263#6 951878263#7 951878263#8 951878230#4 -951891772#4 -951891772#3 -951891772#2 -951891774 951891771#2 951878270#2 951878270#3 951878270#4 -951887656#2 -951887656#1 951878272#1 -951887654#1 -951887654#0 700825962#4 700825962#4.25 700825962#4.106 700825962#4.130 -700825961#7 -700825961#7.10 -700825961#7.37 -700825961#6 -700825961#6.9 951887666#0 951887666#1 951887666#2 951887664#1 951887664#2 951887663#1 951887663#2 951887661#3 951878266#0"/>
</vehicle>
<vehicle id = "veh9" type= "veh_passenger" depart="10815" >
<route edges =" 951370989 951370989.40 951370989.47 951370989.53 951370989.56 951370989.62 951370989.64 951370989.67 -902433320#1 -902433320#0 902433321#2 45342799#21 45342809#0 951368600#0 951368600#1 -45342797#3 -951368601#1 -951368601#0 -951368603#0 45342835#2 45342809#2 45342809#3 45342798#3 -45342837 -951441769 951370985#1 45342809#7 -45342814#5 -45342814#4 -45342803#5 -45342803#4 45342821#0 -45342822#2 -45342820#1 -45342804#3 -45342804#2 -45342804#1 -45342843#3 -45342843#2 -45342843#1 -45342843#0 44740957#2 44740957#4 -671399051#1 -671399051#0 -44740942#1 -44740901#0 -313316089 -951438761 -44740929#5 -951438760#1 -951438760#0 -313316091#19 -313316091#18 -313316091#18.26 -313316091#17 -313316091#16 45378639#0 45378639#0.48 45378639#1 45378639#1.38 45378658#0 45378658#1 45378658#2 -45378640#1 -45378640#0 45378655#1 45378655#2 -45378684#1 -671178935 -45378685#1 -45378685#0 -45378685#0.42 -313316091#4 -313316091#4.67 -313316091#2 -313316091#2.44 -313316091#1 -313316091#1.32 -313316091#0 -313316091#0.27 -313316091#0.72 -313316091#0.80 45340579#18 45340579#18.164 44740932#0 44740932#2 44740916#8 44740916#9 44740916#9.64 -909019783 -909019783.98 -971495601#3 -951346855#1 -951346855#1.22 -951346855#1.42 -951346855#1.57 -951346855#0 -951346855#0.7 -951346855#0.23 -908560900#2 -908560900#1 -908560901#21 -908560901#21.18 -908560901#21.74 -908560901#20 -908560901#20.10 -908560901#20.61 -908560901#20.115 -908560901#19 -908560901#19.77 -908560901#19.104 -896786299#0 -896786298 -45378665#19 -45378665#18 -45378665#17 -45378665#17.13 -45378665#17.39 -45378665#17.57 -45378665#16 -45378665#14 -45378665#14.14 -45378665#14.36 -45378665#13 -45378665#13.39 -876614861#6 -876614861#6.29 -876614861#5 -876614861#4 -876614861#3 -876614861#3.25 -876614861#2 -876614861#1 896786269#2 896786269#3 -896786267#0 -896786267#0.60 -896786267#0.197 -896786267#0.219 -896786267#0.239 -896786267#0.242 -896786267#0.244 -896786267#0.246 -896786267#0.249 951346847 951346847.48 951346847.53 951346847.59 951346847.66 951346847.71 951346847.79 951346847.86 951346847.113 951346847.119 951346847.127 951346847.137 -951347814#1 -951347814#1.43 -951347814#1.47 951433464 -951347813#0 -951347813#0.14 -896786295#1 -896786295#1.28 951347815 951347815.27 951347815.37 951347815.47 951347815.52 951347815.56 951347815.58 951347815.61 951347815.65 896786296#13 896786296#13.14 -909024258#1 -909024258#1.26 -909024258#0 909024259#2 909024259#2.24 909024259#2.43 909024259#2.69 909024259#2.80 896786296#15 896786296#15.3 -951346848#1 -951346848#0 -951346848#0.9 -951346848#0.18 -951346848#0.28 -951346848#0.36 -909024276#1 -909024276#0 -909024276#0.55 896786296#18 896786296#18.4 896786296#18.17 -903953334#9 -903953334#9.24 -903953334#9.50 -903953334#9.58 -903953327 -903953327.7 -903953327.18 -903953327.71 903953326#1 -903953325#3 909778546#0 951346849 -44739144#20 909778547#0 909778547#2 -903953325#1 903953324#0 903953324#1 903953324#1.22 -44739144#18 -877398366#21 952002225#0 -909024265#2 -909024265#2.29 -909024265#1 909024263 909024263.62 909024264#1 -877398366#19 896786289#2 896786289#3 -896786294#8 -896786294#7 -896786294#7.20 -896786294#6 -896786294#5 -896786294#5.6 -896786294#5.10 -896786294#5.13 -896786294#5.16 -896786294#5.19 -896786294#5.22 -896786294#4 -896786294#3 -896786294#3.26 -896786294#2 -896786294#2.7 896786276 896786276.34 -896786277#0 877398366#16 904286386#0 909024293#2 -909024292 -909024292.58 -896786290#3 -896786290#2 904286383#2 -904286380#0 -951992355 -904286385#10 -904286385#9 -951992348 904371486#1 904371486#2 904371486#4 904371486#4.3 -951973462#3 -951973462#3.3 -951973462#3.5 -951973462#3.8 -951973462#3.10 -951973462#3.15 -951973462#3.18 -951973462#3.21 -951973462#3.25 -951973462#3.31 -951973462#3.34 -951973462#3.38 -951973462#3.47 -951973462#3.53 -951973462#3.58 -951973462#3.69 -951973462#3.74 -951973462#3.79 -951973462#2 -951973460#1 -951973460#0 904371493#2 904371493#3 671191681#3 671191681#3.66 -671191682#0 -904371489#0 -904286385#4 -951973457 904371492#5 -904371456#3 -904371456#2 -904371456#2.22 -904371456#1 -904371456#0 -904371456#0.17 -671191680#0 -671191680#0.38 -671191680#0.44 -671191680#0.48 -671191680#0.53 -671191680#0.58 -671191680#0.63 -671191680#0.76 -896786327#0 -877395784#21 -877395784#21.14 -951951638#10 -951951638#10.18 951973434#1 951951639#3 951951639#4 -951973432#1 -951951638#7 -951951638#5 -951973430#0 -952002224#4 -952002224#4.27 951946798#0 -951951638#3 -951951638#2 -951951638#1 -952000397 951951639#15 896786337#6 896786337#7 896786337#8 896786337#8.8 896786337#10 896786337#10.21 -951887700#20 -951887700#19 -671756019#4 -951961235 -951961234#0 -951887700#16 -951887700#15 -951887700#14 -951887679#2 -951887679#1 -951887679#1.32 -951887679#1.35 -951887679#1.38 -951887679#1.41 -951887681 951887675#1 951887678#0 951887678#1 951887678#2 951887700#10 951887700#11 951961240#0 951961240#0.54 951961240#0.57 951961240#0.59 951961240#0.62 -951961245 951891772#0 -951891773 -951891771#0"/>
</vehicle>
<vehicle id = "veh10" type= "veh_passenger" depart="10815" >
<route edges =" 45342801#5 45342801#5.32 902433317#3 902433317#4 951368598#0 -951381446#0 951368595#1 951368595#1.17 951368595#1.34 902433317#8 902433317#8.29 902433317#9 951368594#0 951368594#1 951368594#2 972507120#3 -951369746#4 -951369746#4.24 -951369746#4.27 -951369746#4.29 -951369746#2 -951369746#2.3 -951369746#2.36 -951369746#2.42 -951369746#2.45 -951369746#2.50 -951369746#1 -951369746#1.3 -951369746#1.9 -951369746#1.18 -951369746#1.26 -951369746#1.35 -951369741#4 -951379885 -951379885.7 -951379885.13 -951379885.20 -951379885.27 951379886#2 951379886#2.14 951379886#2.19 951379886#2.22 951379886#2.25 951379886#2.28 -951369741#1 -951369741#1.20 -951369741#1.25 -951369741#1.30 45344273#27 45344273#27.17 -897252875#3 -897252874 897252876#1 897252876#1.54 -45344336#9 -45344336#9.10 -45344336#9.61 -45344336#9.126 -45344336#9.147 -950455054 45344320#6 45344320#6.8 45344335#8 -45344336#7 -45344336#7.6 -45344336#6 -45344336#6.35 -45344336#5 950235700#0 950235694#0 950235694#1 -950732875#1 -950235702 -950235695#1 950235697#3 950235697#4 950235697#4.10 950235697#4.13 950235697#4.16 950235697#4.19 950235697#4.22 45344272#2 45344272#2.46 45344272#3 45344272#3.108 45344272#3.157 45344272#3.171 700254525#0 -700254523 -700254524#0 -700254525#11 -700254525#9 -699875131#4 -699875131#3 -950400194#2 950235689#2 45344335#1 -699875131#1 -699875131#0 -897172091#8 -45344326#3 -45344326#2 -45344326#2.15 -45344326#0 -45344326#0.20 -45344326#0.39 -45344330#0 -902433295#3 -45344329#3 45344324#1 45344324#1.27 45344324#1.42 45344324#1.62 45344324#1.71 45344324#1.113 -897172091#3 -897172091#1 -897172091#0 -45344296#0 -45344296#0.92 -45344296#0.150 -901885452#0 -897252884#0 -45344329#1 951370979#0 -951440590 45344291#2 45344291#3 45344291#3.27 45344291#3.54 45344291#3.63 45344291#3.68 45344291#3.139 -951370958 -45344288#0 -45344288#0.29 -45344294#3 897252857 -897252858#1 951370960 -951370961#0 -897252852#5 -951370962 -951370962.12 -951370962.22 -951370962.34 -951370962.43 -951370962.49 -951370962.56 45344304#3 45344304#3.13 -45344286#12 -45344286#11 951404497 951404497.20 951404497.26 951404497.33 951404497.38 951404497.43 -897252855#0 -45344287#0 -45344287#0.5 -45344287#0.14 -951384608#1 -951384608#1.59 -951384608#1.63 -951384608#1.67 -951384608#1.69 -951384608#1.73 -951384608#0 -951384608#0.43 -951384608#0.47 -951384608#0.50 -951384608#0.52 -702632123#1 -702632123#1.4 702632122#0 702632122#0.6 702632122#0.10 702632122#0.14 702632122#0.18 702632122#0.49 702632122#0.55 702632122#0.60 702632122#0.66 702632122#0.72 702632122#0.90 702632122#0.93 702632122#0.96 702632122#0.98 702632122#0.100 702632122#0.108 702632122#0.114 702632122#0.117 702632122#0.121 702632122#0.128 702632122#1 702632122#1.17 702632122#1.20 702632122#1.23 702632122#1.27 702632122#1.31 702632122#1.38 -951440588 -951440588.7 -951440588.10 -951440588.13 -951440588.16 -951440588.21 -951440588.26 -951440588.30 -951440588.35 -951440588.39 -951440588.44 -951440588.72 -951440588.82 -951440588.90 -951440588.97 -951440588.103 -951440588.117 -951440588.121 -951440588.124 -951440588.126 -951440588.135 -951440588.140 -951440588.146 -951440588.151 -951440588.155 -951440588.159 -951440588.175 -951440588.198 -951440588.205 -951440588.210 -951440588.231 -951440588.236 -951440588.241 -951440588.245 -45344286#1 -45344286#1.19 -45344286#0 -45344307 -951441961 971495602#10 971495602#10.24 971495602#10.91 971495602#10.136 971495602#10.205 971495602#10.291 971495602#10.337 971495602#10.378 971495602#11 -896892975 -670655885 -670655885.29 -45344283#10 -45344283#10.13 -45344283#10.60 -45344283#10.150 -45344283#10.267 -45344283#10.331 -45344283#10.378 -45344283#10.440 -45344283#10.458 -45344283#10.481 -45344283#10.513 -45344283#9 -45344283#8 -45344283#7 -45344283#7.3 950233989#0 950553582#0 950553582#0.54 950553581#0 950553581#0.7 950553581#0.14 700278833#6 700278833#6.17 700278833#6.73 700278833#6.117 45344284#0 45344284#1 -950553573 950238193#2 45344336#1 950553578#1 -950238192#5 -950238192#5.24 -950238192#4 -45344281#0 -700278832#5 -700278832#5.26 -700278832#4 -700278832#4.61 -700278832#3 -700278832#3.10 -700278832#3.21 -950392119 -950392119.13 -950392119.17 -950392119.21 -950392119.29 -950392119.36 -950392119.48 -950392119.56 -950392119.64 -950390889#1 -950390889#1.12 -950390889#1.34 -950390889#0 -950390889#0.4 -950390889#0.19 -950390893#1 -950390893#1.23 -950390893#1.49 -950390893#1.53 -950390893#1.57 -950390893#1.63 -950241225#1 -950241225#0 -950241225#0.29 -950241225#0.59 -45344280#9 -45344280#9.5 -45344280#8 -45344280#8.26 -45344280#7 950241224#0 950241224#0.21 950241224#0.25 950241224#0.29 950241224#0.34 950241224#0.39 950241224#0.43 950241224#0.53 -950390890 -950390890.10 -950390890.15 -950390890.19 -950390890.22 -45344280#4 950394096#0 -950394095 -950394091#1 -950241868#1 -950241868#1.8 -950241868#1.33 950394090#0 -950241869#0 -950241869#0.28 -950241869#0.37 950241866#5 950241866#6 950241866#6.19 950241866#6.38 -950394092 -950394093#0 950241233#3 950241866#8 950241866#9 45344284#6 45344284#7 45344284#7.45 45344284#7.106 950238188#0 950238188#2 950238188#3 950641814 -950641815#0 -950641815#0.6 -950641816#11 45344271#10 45344271#11 950806850#0 950806850#1 -45344277#8 -45344277#7 950806858 950235725#7 -897252880#3 -897252880#2 -897252880#2.15 -897252880#1 -897252880#1.19 950641816#4 950641816#4.14 950641816#5 950641816#6 950641816#7 950641816#8 950641816#9 950235732#0 950235732#1 -950235733#0 -950641813#1 -950641813#1.14 -950641813#1.27 -950641813#1.43 -950641813#1.59 -950641813#0 -950641813#0.15 -950641813#0.21 -950641813#0.27 -950241847#5 -950241847#5.4 -950241847#5.12 -950241847#5.18 -950241847#5.23 -950241847#4 -950241847#3 45344284#9 45344271#6 45344271#6.35 45344285#0 950235732#5 950235732#5.16 951077734#0 -950241846#1 -950241846#1.22 951043903 950241823#3 45344284#12 45344284#12.58 950872160#0 951077740#0 951077740#1 951077740#2 951077739#1 951077739#1.17 951077739#2 951077739#2.3 951077739#2.7 -950235729#5 -950235729#4 950235730#1 -950872165#1 -950872165#0 45344285#7 45344285#7.32 45344285#7.36 45344285#7.39 45344285#7.44 45344285#8 45344285#9 45344285#9.26 45344285#10 45344285#10.3 45344285#10.10 45344285#10.14 45344285#10.20 45344285#10.25 950872160#2 950872160#2.4 950872160#3 950872160#4 950872160#4.25 950872160#5 950872160#6 950872160#7 950872160#8 950872160#9 950872160#9.42 -950929127#13 -950929127#13.7 -950929127#12 -950929127#11 -950929127#10 -950241837#1 -950241837#1.71 -950241837#1.96 -950241837#1.99 -950241837#1.102 -950241837#1.105 -950241837#1.108 -950241837#0 950241834#2 -950929127#6 -950929127#5 -950929127#4 -950929127#4.20 950241828#0 -950241821#4 -950241821#3 950241832#2 950241832#2.33 -951014857 951014861#0 951014861#1 951014861#2 951014861#3 951014861#4 951014861#4.41 951014861#4.44 951014861#4.47 951014861#4.51 -951014868#0 -951014859 -951014859.35 -951014859.38 -951014859.40 -951014859.42 -951014859.50 -951014859.53 -951014859.56 -951014859.60 -950241831#2 -950241831#1 -950241818#6 -950241818#6.21 -950241818#5 -950241818#5.20 -950241818#4 -950241818#3 -950241823#5 -950929127#0 -45344271#4 950241818#0 -950241821#13 -951014869 950241819#1 950241819#2 950241819#3 950241819#4 950241819#5 951014855#2 950241823#9 950241823#10 -897252878#9 -897252878#9.96 45344271#0 45344271#1 45344271#1.39 45344271#2 45344271#2.26 -950241848#5 -950241848#5.35 -950241848#4 950241855#0 950241855#1 -950241851#1 -950241850 -950241861#2 -950241861#1 -950241861#0 -902433322#0 -902433322#0.69 45344282#5 45344282#5.41 45344282#5.76 950241848#0 950241857#3 950241857#3.27 950241857#3.51 950241857#4 950241857#5 -897252878#1 -897252878#0 -897252877#2 -897252877#2.49 950243392#0 950241209#3 950241209#3.37 -950396025 -897252877#0 -897252877#0.24 -950241220#4 -950241220#3 950390892#0 950390892#0.36 950390892#0.42 950390892#0.47 950390892#0.51 -950389244#0 -950389244#0.11 -897252879#13 -897252879#12 -897252879#12.59 -950243392#2 950243391#1 950243391#1.110 950243391#2 950243391#2.3 950243391#2.6 -897252879#10 -950396020#3 950241208#0 950241208#0.48 950241208#2 950241208#2.29 950397769#0 950241205#1 -897252879#5 -897252879#4 -897252879#4.26 -897252879#3 -897252879#2 -897252879#1 -897252879#1.25 -897252879#0 -897172107 -897172108#14 897172106#11 897172106#11.24 -950239902 -950239902.40 -950239902.55 -950239902.71 -950239901#2 950239900#0 950239900#1 897172106#13 897172106#13.38 897172106#13.119 897172106#13.183 -951132944#3 950239883#2 950239883#2.23 950239883#2.49 950239884#0 950239884#1 950239884#2 -897615334#5 -897615334#5.27 -897615334#4 -897615334#4.10 951132944#0 -897615335#4 950239888 -897615334#0 -897615334#0.16 -897615335#2 -897615335#2.11 -897615335#2.27 -897615336#2 -897615336#2.22 950239894#1 950239894#2 -671176469#15 -671176469#14 -671176469#13 -671176469#11 -671176469#11.1 -671176469#11.8 -671176469#11.17 -671176469#10 -671176469#10.76 -671176469#9 897615369#0 897615369#0.22 897615369#0.32 897615369#0.42 -897615370#4 -950232592#2 897315577#2 -897615363#1 -897615363#0 -897315574#0 -671176469#5 -671176469#4 897315573#0 897315575#1 -897315576#0 -897315576#0.9 897315572#1 897315573#2 897315573#2.12 897315573#3 897315578#14 897315578#14.17 -951136520#1 897315566#4 897315567#3 897315571#3 897315571#3.17 897315571#3.66 897315571#4 897315571#4.31 897315571#5 -671176469#2 -897615348#4 897615347#2 897615347#2.22 -951136518 -951136518.19 -951136518.27 -951136518.35 -951136518.44 -951136518.51 -951136518.61 -897615348#2 951136517 -897615349#2 -897615349#2.21 -897615349#2.26 -897615349#2.31 -897615349#1 -897615349#1.30 -897615349#0 896940752#4 896940752#4.22 896940752#4.82 896940752#5 897172100#0 897172100#0.29 950232593#0 950232593#0.152 950232593#1 950232593#1.37 -950232594#5 -950232596#8 -950232596#7 -951141457#2 -951141457#2.48 -951141457#2.53 -951141457#2.58 -951141457#1 -951141457#1.7 -951141457#0 -951141459#0 -950232596#3 -950232596#3.14 -950232596#2 -950232596#2.6 -950232596#2.20 -950232596#2.32 -950232596#1 -950232596#1.30 -950232596#0 897172100#3 897172100#3.19 897172100#3.61 897172100#3.101 897172100#4 897172100#4.27 -950239875#2 -950239875#1 950239871#4 950276709 950239876#1 950239876#1.33 -950276710#9 -950276710#9.31 951141461#0 951141458#0 951141458#1 951141458#2 951141458#2.11 951141458#2.18 951141458#2.24 951141458#2.29 951141458#2.37 951141458#2.45 951141458#2.53 951141458#2.64 951141458#2.77 951141458#3 950278751#0 -950280674 671176475#5 671176475#6 -950278751#3 -950278751#3.25 -950278751#3.27 -950278751#3.29 -950278751#3.32 -950278751#2 950232595#1 950239881#2 950232594#3 950232594#3.10 -950278756#2 950278755#0 950278755#1 950278753#0 950278753#0.13 -950278754#1 -950278754#0 -950278756#0 -950278757 -950278758#0 -950278758#0.29 -950278758#0.56 -950278758#0.67 950232596#12 950232596#12.7 950232596#12.16 950232596#12.27 671176477#10 45343180#0 45343180#1 45343180#1.33 45343180#1.64 45343180#1.87 951136516 951136516.9 951136516.23 951136516.42 -897615343#5 -897615343#4 -897615343#4.17 -897615343#4.53 -897615337 -897615337.16 -897615337.65 897615338#5 897615338#5.24 897615338#5.44 897615338#6 897615334#8 897615334#8.25 -950239877#3 -950239877#2 -950239877#2.21 -950239877#2.42 897615339#5 -950287957#1 -950287957#0 -950287959#1 -950287959#0 -45343180#5 -45343180#5.49 -897615339#3 950239878 950287962#1 950239879#0 -950287961 -950239880#1 950287960 950239879#2 -897615339#1 -897615339#1.22 -897615339#0 -671176477#8 -671176477#8.26 -671176477#8.54 -671176477#8.73 -897615341#3 -897615341#3.35 897615340#0 897615340#0.26 897615340#0.45 -950287964#2 -950287964#1 -950287964#0 -950287964#0.14 -950287964#0.19 -950287964#0.24 -950287964#0.32 -897615341#0 -897615341#0.18 -897615342#4 -897615342#4.33 -897615342#4.66 950287958#0 950287959#3 -897615338#2 -897615342#2 -897615342#1 -897615342#1.8 -897615342#1.23 -897615342#0 -897615342#0.8 -897615342#0.25 -897615342#0.39 -897615343#0 897172106#16 897172106#16.31 897172106#17 897172106#17.12 897172106#18 897615338#0 -950287956#0 -950287956#0.33 -950287956#0.37 -950287956#0.40 -950287956#0.44 -950287956#0.48 -950287956#0.90 -950287956#0.102 897172106#20 897172106#20.28 -45343180#8 -45343180#8.53 950241212#0 950241212#1 950241212#1.21 950241212#1.43 950241212#1.65 950241211#1 -950239856#2 -950239856#2.35 -950239856#1 -950239856#1.19 -950241214#2 -950241216 -950241216.24 -950241216.47 950241218 950241218.22 671176477#5 950239856#4 950239859 950239859.34 671176475#1 950285698#0 950285698#0.6 950285698#0.11 950285698#0.18 950285698#0.29 950285698#1 950285698#1.5 950285698#1.9 950285698#1.14 -950285701#0 -950276710#5 -950276710#5.9 -950276710#5.17 -950239862#7 -950239862#7.26 -950239862#6 -950239862#6.7 -950239862#6.14 -950239862#6.26 -950282463 -950282463.9 -950282463.17 -950282463.21 -950282463.30 -950282463.39 -950276710#1 -950276710#1.5 -950276710#1.13 950239861#0 950239861#0.9 950239861#0.17 950239861#0.27 950239861#0.39 950239861#1 950239861#2 -671176477#3 -671176477#3.21 950239863#0 950239863#0.34 950239863#1 -950239862#3 -950239862#3.25 950239867#0 950239867#0.70 950273502#2 950273502#2.11 950239862#0 -671176478#1 -671176478#1.5 -671176478#1.11 -671176478#1.22 -671176478#1.56 -671176478#0 -671176478#0.38 -671176478#0.42 -671176478#0.45 -671176478#0.50 -671176478#0.54 -897172102 -897172103 -671176472 897252879#17 897252879#18 897252879#18.162 897252879#19 897252879#19.29 897252879#20 897252879#21 897252879#21.85 897252879#22 897252879#23 896892972 896892973 896892973.27 896892973.31 -896786335#50 -896786335#49 -896786247#9 -896786247#9.8 -896786247#9.17 -896786247#9.75 -896786247#9.157 -896786247#8 -896786247#7 -896786247#7.2 -896786247#6 -896786247#6.66 -896786247#6.103 -896892976#1 -896892976#1.4 -896892977#3 -896892977#3.15 -896892977#3.37 -896892977#2 908869250#5 -908869248#1 -908869248#1.4 -908869248#1.6 -908869248#1.9 -908869248#1.11 -908869248#1.19 -951358827#2 -951358826 -951358826.10 -951358826.13 -951358826.16 -951358826.19 -951358826.36 -951358826.40 -951358826.44 -951358826.49 -896786335#42 -896786335#42.22 -896786335#41 -896786335#40 -896786335#39 -896786335#39.27 -896786335#37 -896786335#36 -951349917#1 -951349917#1.14 -951349917#1.29 -951349917#1.41 -951349917#1.59 -951349918 -951354772#1 -951354772#1.39 -951354772#1.50 -951354772#1.59 -951354772#0 -951354772#0.6 -951355289#1 -951355289#0 896893016#0 896893017#0 -896893018#1 -896893018#1.27 -896893018#0 877388728#14 -896786335#24 -896893004#5 896893002 896893002.42 -896786335#22 -896893013#7 -896893013#7.29 -896893013#7.87 951995483 -896893004#2 -896893004#0 -877388728#11 -877388728#10 -877388728#10.145 -877388728#9 -877388728#7 -877388728#5 -877388728#5.9 -877388728#5.30 -877388728#4 -877388728#4.18 -877388728#3 -877388728#3.29 896893023#0 896893023#0.34 -896893021#12 -896893021#12.33 -896893021#11 951988584 951988585#1 -952213575#0 -896893021#9 -896893021#9.73 -896893021#7 -896893021#7.63 -896893021#7.71 -896893021#7.74 -896893021#5 -896893021#5.4 -896893021#5.17 -896893021#4 -896893021#4.33 896893020#0 896893020#0.22 896893020#0.45 -952213570#0 -952213570#0.40 -952248230#2 -951988588#1 -951988617 -951988590#5 -951988590#3 -951988592#1 -951988592#1.72 -951988592#1.76 -951988592#1.81 -951988592#1.85 -951988592#1.88 -951988592#1.92 -951988592#1.145 -951988592#1.154 -951988592#1.163 -951988592#0 -951988592#0.36 -951988592#0.38 -951988592#0.41 -951988592#0.44 -951988590#9 -951988590#9.14 -951988590#9.23 -951988590#9.30 -951988590#8 -951988590#7 -951988590#7.31 -951988590#7.41 -951988590#7.50 -951988590#7.79 -951988590#7.90 -951988590#7.100 -951988590#7.124 -951988590#7.128 951988609#0 951988609#0.37 951988609#1 951988609#1.8 951988609#2 951988609#2.2 951988609#2.6 -951988611 -951988611.17 -951988611.22 -951988611.25 -951988611.32 -951988611.35 -951988611.38 -951988611.40 -951988611.43 -951988611.46 -951988611.61 -951988611.64 -951988611.66 -951988610#0 -951988610#0.3 -951988610#0.6 -951988610#0.39 -951988610#0.44 -951988610#0.49 -951988610#0.54 -951988610#0.59 -951988610#0.63 -951988608#0 -951988608#0.4 -951988608#0.7 -951988608#0.10 -951988608#0.16 -951988608#0.22 -951988608#0.27 -951988608#0.32 -951988608#0.52 -951988608#0.57 -951988608#0.62 -951988608#0.67 -951988608#0.86 -951988608#0.92 -951988608#0.100 951988602#2 951988602#3 951988602#3.7 951988602#3.12 951988602#3.18 951988602#3.27 951988602#3.34 951988602#3.40 951988602#3.47 951988602#3.53 951988602#3.61 896786309#11 896786309#13 896786309#14 -951988600#1 -951988607#3 -951988607#2 951988606#0 951988606#1 -951988605#0 951988604#4 -896786309#20 -951930621 951930617#5 951930617#6 -951930618#2 -951983608#2 -951983608#1 -951983611#3 -951983610 -951983592#5 -896786310#6 -896786310#6.9 951988574#0 -951988576#0 896786309#4 896786309#4.4 896786309#4.46 896786309#5 896786310#3 951983615 951983615.81 951983615.94 951930617#12 -896786309#7 -896786309#7.27 -896786309#7.77 -896786309#7.88 -896892996#1 -896892996#1.16 -896892996#1.37 -896892996#1.52 -896892996#1.86 896892997#0 896892997#1 896892999 896892999.64 -896786307#7 -896786307#7.13 -896786307#6 -896786307#6.13 -896786307#6.32 877388976#0 877388976#0.43 877388976#0.77 877388976#1 877388976#1.12 877388976#1.51 877388976#1.72 896786304#1 896786304#2 896786300#0 896786300#0.23 896893013#0 896893013#0.10 896893013#0.59 -896893009 -896893009.79 -896893012#4 -896893012#3 -896893012#2 -896893012#2.9 -896893012#1 -896893012#0 -896893012#0.11 896786303#5 896786303#5.27 896786303#5.100 896786303#5.124 -896786301 -896786301.70 -896786303#3 -896786303#2 -896786303#2.23 -951983587#8 -951983587#7 -951983587#6 -951983587#5 -951983587#4 -951983587#4.5 -951983587#4.15 -951983587#4.17 -951983587#4.21 -951983587#4.25 -951983587#4.34 951983616#0 951983616#0.5 951983616#0.7 951983616#0.11 951983616#1 951983617#0 951983617#0.43 877398739#1 951983587#2 -951983589#1 -951983589#1.108 -951983589#1.123 -951983589#1.137 896786304#8 896786304#8.15 896786304#9 896786304#9.20 -896786311#10 -896786311#9 951976010#0 951976010#1 -896786322 -896786322.14 -896786322.21 -896786323#1 896786325#4 896786325#4.12 896786319#0 896786319#0.19 896786319#1 896786319#1.7 951976008 951976006#1 -951976007 896786335#7 896786335#8 896786335#8.14 -896786321#3 -896786321#3.6 -896786321#3.61 951976012 951976012.68 951976012.72 951976012.75 951976012.78 -896786321#0 -896786321#0.44 -896786321#0.169 -896786311#7 -896786311#6 -896786311#6.24 -896786311#4 -951930671#3 -951930671#3.23 -951930671#2 -951930671#2.8 -951930671#1 -951930671#0 -951930671#0.25 -951930671#0.32 -951930671#0.42 877396172#5 -896786320#0 896786315#2 -951976005 896786317#1 896786317#1.17 896786317#2 896786317#2.28 896786317#3 896786317#3.44 -896786335#3 -896786335#3.10 -896786335#2 -896786335#1 -896786335#1.14 -896786335#0 -951946803#2 951946816#14 951946816#15 877395784#19 951951639#0 951946803#0 951946795#1 951946795#2 -951946801 951951639#6 951946800#1 951946795#4 951946795#6 951946795#7 951946795#9 951946795#10 951946795#11 951946795#11.34 951946795#11.40 951946795#11.45 -951887683 -951887684 -951887682#6 -951887682#5 951887686#0 -951887688#2 -951887688#1 951887689 951961234#0 951961234#1 -951878265#2 951878263#1 951878263#1.39 951878263#1.46 951878263#1.53 951878263#1.72 951878263#1.75 951878263#2 951878263#2.2 -951878266#4 -951878266#4.37 -951878266#2 -951878266#1 -951878266#1.39 -951878266#1.47"/>
</vehicle>
<vehicle id = "veh11" type= "veh_passenger" depart="10815" >
[...]
</vehicle>
<vehicle id = "veh18" type= "veh_passenger" depart="21630" >
<route edges =" 951370989 951370989.40 951370989.47 951370989.53 951370989.56 951370989.62 951370989.64 951370989.67 -902433320#1 -902433320#0 902433321#2 45342799#21 45342799#22 -45342801#3 903341082#0 903341082#0.10 903341082#1 -951368605#1 -951368605#0 -45342811#0 -45342801#0 -45342798#1 45342840#0 45342840#1 45342840#1.79 45342840#1.84 45342840#1.87 45342840#1.91 45342840#1.95 45342840#2 -45342839#1 -45342838#2 -671416442#2 671416440 671416443#2 -45342838#0 -45342810#0 45342809#5 45342809#6 45342809#7 45342809#8 45342809#9 45342809#10 45342809#10.44 45342825#0 45342825#1 -45342824#4 -45342823#1 -45342833#4 -951366786 -45342824#2 -45342824#1 -45342824#0 45342809#15 -951417479 45342805#2 45342805#3 45342805#4 -45342809#12 -45342831#3 45342822#0 -45342832#1 -45342832#0 45342804#3 -45342820#0 -45342803#2 -45342802#2 -45342802#1 671399046#2 671399046#2.23 -671399054#1 -671399054#0 671399058#1 671399058#2 44740901#4 44740901#5 -44740891#4 974189220#1 -44740896#2 -951417474 44740957#8 974189220#3 951417475#1 44740901#2 -44740957#5 -44740957#4 44740902#14 44740902#14.81 44740902#14.94 -44740942#2 -44740942#2.11 -44740942#1 -44740942#0 -44740969#5 -44740969#4 -44740969#2 -951439006 -951439007 -951439008 -44740929#10 -951421954 -951421954.20 44740930#13 44740930#14 44740963 -44740962#0 44740960#1 -44740929#8 -44740929#7 -44740929#6 -44740929#5 -44740929#4 672215965#0 672215965#0.11 672215965#1 -44740922#0 -313316091#16 45378639#0 45378639#0.48 45378639#1 45378639#1.38 45378639#2 45378639#2.25 45378639#2.39 951439125#0 951439125#0.15 951439125#0.23 951439125#0.33 951439125#1 45378641#1 45378641#1.76 -45378640#3 -45378640#2 45378658#3 -45378683#3 -45378653#6 -45378653#5 951358812 45378655#6 951358810#1 951358810#1.4 45378656#1 -45378655#4 -45378685#2 671178935 45378684#1 -45378655#2 -45378683#1 45378689#0 45378689#1 45378689#2 45378689#4 671761561 -44740940#2 -44740940#1 44740945#0 44740945#1 44739167#14 44740949#0 -44740951#1 -44740951#0 -44740953#4 -44740953#3 -44740953#2 -44740923#3 44740927#17 44740922#5 44740922#5.74 44740926#0 44740926#1 44740926#2 -951358804 -44740955#1 951358803 44740926#4 44740926#5 -44739167#10 -44739167#9 102277232#2 102277232#2.138 102277232#3 102277232#4 102277232#4.80 102277232#4.133 102277232#4.154 102277232#5 -951438769 -44740930#1 -44740930#0 -44740930#0.64 896892969#13 896892969#13.22 896892969#13.80 896892969#13.126 44740927#0 44740927#0.8 44740927#0.22 -951358794#2 -951358794#1 44740939#0 951346853 44740930#3 44740930#4 44739156#14 44739156#15 44739156#16 -44740927#4 951438767 951438767.14 951438767.19 951438767.25 951438767.33 951438767.38 951358798#1 951358798#1.17 44740927#6 -951366798 -951366798.30 -951366798.39 -951366798.48 -951366798.59 -951366798.70 -951366798.78 -951366798.83 -951366798.89 951358797#3 -951358800#0 44740918#2 44739163#19 44739163#20 -45378657#4 -45378657#3 -45378657#3.57 -45378657#3.61 -45378657#3.65 -45378657#3.69 -45378657#3.73 -45378657#3.78 -45378657#2 -45378657#1 -44740931#2 -44740931#2.59 -44740931#1 -44740919#0 44740920#8 -313316091#0 -313316091#0.27 -313316091#0.72 -313316091#0.80 -971495601#9 -971495601#9.28 -971495601#8 -971495601#7 -44740916#11 -909019783 -909019783.98 -971495601#3 -44740910#8 -44740910#7 909019782 909019781#1 44740932#4 -909019787 -44740933#1 -44740933#0 -44740916#4 -44740916#4.29 -909019776#1 -909019776#1.34 909019774 909019774.53 909019774.58 909019774.63 44740910#3 44740910#4 44740910#5 44740910#5.46 44740932#6 44740932#7 313316100#7 313316100#8 313316100#8.72 -971495601#0 -313316086 -44739144#26 -903953334#9 -903953334#9.24 -903953334#9.50 -903953334#9.58 -903953334#8 -903953334#8.6 -903953334#8.17 -903953334#8.53 -903953325#4 -903953325#3 -903953325#2 -903953325#2.18 -909778547#2 -951361609 903953324#1 903953324#1.22 44739144#19 44739144#19.50 44739144#20 44739144#21 44739144#22 909024272#0 909024272#0.29 909024273#0 909024273#0.33 909024273#1 -909024277#3 -909024274 -909024275#0 -909024275#0.56 -909024279#2 -909024279#2.12 -909024279#1 -909024279#1.6 -909024279#1.9 -909024279#1.11 -909024279#1.14 -909024279#1.17 -909024279#0 -909024279#0.11 896786295#9 -896786271#2 -896786271#2.29 -896786271#1 -896786271#0 -896786272#0 -896786279#0 -896786279#0.19 909024281 909024281.8 896786270#1 896786269#9 909024280#0 909024278#1 909024278#1.42 -896786294#6 -896786294#5 -896786294#5.6 -896786294#5.10 -896786294#5.13 -896786294#5.16 -896786294#5.19 -896786294#5.22 -896786294#4 -896786294#3 -896786294#3.26 -896786294#2 -896786294#2.7 -702673217#5 909024267 909024267.76 -909024268#0 -909024268#0.45 -702673217#3 -896786289#2 877398366#19 -909024264#1 -909024263 -909024263.30 909024265#1 909024265#2 909024265#2.13 909024265#3 671960104#0 671960104#1 671960102 -671960101#10 44740913#4 44740913#5 -877396860#22 -877396860#21 -904371477 -904371477.66 -904371478#1 -904371478#1.6 904371476 904371475#1 -904371474#3 -904371480 -904371480.19 -904371480.46 -904371480.53 -904371480.60 -904371480.68 -904371480.92 904286388#4 904286388#4.32 -904286389#4 -904286389#4.12 951992350#1 951992350#2 951992350#2.32 951992350#2.34 951992350#2.37 951992350#2.40 -904371481#0 -904371481#0.3 904371482#1 904371482#1.30 904371482#1.45 904371472#0 904371471 -904371473#1 -904371473#1.10 904371470#0 904371470#1 904371470#2 -904286381#6 904286380#0 904286383#3 904286383#3.17 904286383#4 -904286382#0 904286381#2 904286381#3 904286381#3.4 904286381#3.18 -904286372#1 -904286375#0 904286385#12 -951992356 -951992356.18 -951992356.27 -951992356.36 -904371488#0 -904371488#0.22 -904286385#9 -904286385#8 -904286385#6 -951973468#0 -904371489#1 -904371489#1.14 -904371489#1.36 -904371489#1.40 -904371489#1.44 -904371489#0 -904286385#4 -951973457 -904371492#4 951973476#0 951973476#1 951973471#3 -904371456#2 -904371456#2.22 -951973471#1 -951973471#0 -671191680#1 -671191680#1.13 -671191680#0 -671191680#0.38 -671191680#0.44 -671191680#0.48 -671191680#0.53 -671191680#0.58 -671191680#0.63 -671191680#0.76 -896786327#0 -877395784#21 -877395784#21.14 -951951638#10 -951951638#10.18 951973434#1 951951639#3 951973426#1 -951951638#8 -951951638#7 -951951638#5 -951951638#4 -951951638#3 -951951638#2 -951951638#1 -951951638#0 896786337#5 896786337#5.11 896786337#6 896786337#7 896786337#8 896786337#8.8 896786337#10 896786337#10.21 -951887700#20 -951887700#19 -951887686#1 -951887686#0 -951887682#4 951887687#0 951887687#0.26 951887688#0 951887688#1 951887690 -951887700#17 -951887700#17.17 -951887700#16 -951961233#4 951961244 951961244.37 951961244.40 951961244.43 951961244.47 -951961242#1 -951961242#0 -951961240#1 -951961245 951891772#0 951891772#1 -951891774 -951891771#1 -951891771#0"/>
</vehicle>
<vehicle id = "veh19" type= "veh_passenger" depart="21630" >
<route edges =" 45342801#5 45342801#5.32 902433317#3 902433317#4 951368598#0 -951381446#0 951368595#1 951368595#1.17 951368595#1.34 902433317#8 902433317#8.29 902433317#9 951368594#0 951368594#1 -951369743#1 -951369743#1.33 -951369743#1.39 -951369743#0 -951369743#0.6 951369744#2 951369744#2.22 951369744#2.31 -951369736 -951369736.21 -951369736.22 -951369736.24 -951369736.25 -951369736.26 -951369736.36 -951369736.39 -951369736.41 951369745#0 -951381440 -951369738 -951369738.5 -951369738.18 -951369738.24 -951369738.31 -951369741#2 -951369741#2.8 -951369741#2.11 -951369741#2.13 -951369741#2.16 -951369741#2.19 -951369741#2.22 -951369741#1 -951369741#1.20 -951369741#1.25 -951369741#1.30 -45344273#26 897252876#0 897252876#0.16 897252876#0.57 897252874 -897252875#2 -897252875#2.29 -897252875#0 -897252875#0.4 -897252875#0.15 -897252875#0.35 897252876#3 897252876#4 45344320#2 -45344329#7 45344327#0 45344331#4 45344320#4 -897172091#13 -950400189 -45344335#5 -903341090 -897172091#10 -897172091#9 699875131#0 699875130#0 699875130#0.20 699875130#1 699875130#3 699875130#3.37 -897172091#0 -45344294#6 -45344294#6.9 -45344294#6.25 -45344294#5 -45344294#5.7 -45344294#4 -45344294#4.7 -45344294#4.18 -45344294#3 897252857 897252858#2 897252858#3 -45344286#12 -45344299 -45344299.40 -45344299.79 -45344299.80 -45344299.82 -45344299.84 -45344299.86 -45344299.89 -45344299.97 -45344299.99 -45344299.101 -45344299.106 -896892971#1 897252856 897252856.32 897252856.36 897252856.40 897252856.43 897252856.47 897252856.51 -45344286#9 -45344286#9.15 -45344286#9.41 -45344286#9.67 -45344286#8 -45344286#7 -702632122#4 -702632122#4.41 -702632122#4.57 -702632122#4.62 -702632122#4.67 -702632122#4.71 -702632122#4.73 -702632122#4.77 -702632122#3 -951384601#1 951384600 -702632123#2 -702632123#1 -702632123#1.4 -951404495 -951384610#0 -45344272#11 -45344272#11.24 -45344272#10 -45344272#10.10 45344304#0 45344304#1 45344304#1.17 45344304#1.60 897252853 897252850#0 897252850#1 897252850#1.24 -950389247#2 -950389247#2.20 -950389247#2.28 -950389246 -950389246.5 -950389246.12 -950389246.18 950389249#3 950389249#3.3 950389249#3.6 950389249#3.24 -950389248 -950389248.22 -950389248.26 -950389248.29 -950389248.32 -950389248.54 -950389248.59 -950389248.63 -950389248.67 950389249#1 950389249#1.2 950389249#1.22 950389249#1.25 950389249#1.27 950389249#1.30 -950389245 -950389245.21 -950389245.31 -950389245.37 -950389245.42 -45344272#6 -45344272#5 950233988#0 950233988#1 950233988#1.76 950233988#2 950233988#2.43 950233988#2.55 -700278833#3 -700278833#2 -700278833#2.24 950241222#0 950241222#1 950241222#1.31 950241222#1.114 950241222#3 -950241223#0 -950241220#3 -950241220#2 -950241220#1 -950389244#1 -950389244#1.19 -950389244#1.34 950390892#1 950390892#1.66 950390892#1.108 950390892#1.149 950390892#1.152 950390892#1.154 950390892#1.157 897252879#15 897252879#17 897252879#18 897252879#18.162 897252879#19 897252879#19.29 897252879#20 950318425#0 950318424#0 -951440585 -951440585.7 -951440585.12 -951440585.20 -951440585.29 -951440585.32 -951440585.35 -951440585.38 -951440585.40 -951440585.42 -951440585.45 -951440585.50 -951440585.53 -951440585.57 -951440585.61 897252879#22 897252879#23 896892972 896892973 896892973.27 896892973.31 -896786335#50 -896786335#49 -896786335#48 -896786335#48.15 -896786335#47 -896786335#46 -896786335#44 -896786335#44.9 -896786335#44.71 -896786335#43 -896786335#42 -896786335#42.22 -896786335#41 908869237 908869237.8 908869237.20 908869237.48 -908869250#3 -908869238 -908869238.92 -896786335#39 -896786335#39.27 -896786335#37 -896786335#36 -896786335#34 -908869252#3 -908869252#3.7 -908869252#3.13 -908869252#3.35 -908869252#3.57 -908869252#3.88 -908869252#3.90 -908869252#3.94 -908869252#1 -908869252#0 -908869252#0.17 -896786335#30 45378649#0 45378649#0.36 -951354765#1 -951354765#1.60 -951354765#1.64 -951354765#1.67 -951354765#1.70 -951354765#1.74 -951354765#1.99 951354763#1 951354763#2 951354763#3 951995494#0 951995494#1 -877388728#14 -877388728#13 -877388728#13.55 -896893014#1 -896893015#0 -896893005#3 -896893005#2 -896893005#2.6 -896893005#1 -896893005#0 -896893005#0.12 -896893005#0.57 -896893005#0.74 896893013#5 896893013#5.3 896893013#5.5 896893003 896893004#2 896893004#3 896893004#3.24 896893004#4 896893002 896893002.42 -896786335#22 -896786335#21 -896786335#21.41 -896786335#19 -896786335#18 -896786335#17 -896786335#17.2 -896786335#16 -896786335#16.7 -896786335#15 -896786335#14 -896786335#14.27 -896786335#13 877398366#0 877398366#0.11 -909024237#0 951983583#1 -896786335#11 -896786335#10 -896786335#10.38 -951976010#1 -951976011#0 -896786321#1 -896786321#1.3 -951976012 -951976012.34 -951976012.37 -951976012.40 -951976012.44 -896786320#3 -896786320#3.5 951976009#0 951976009#1 -896786335#7 -896786335#6 -896786335#4 -896786335#4.18 -896786335#3 -896786335#3.10 -896786335#2 951976001#0 951976001#1 -951976000#3 -951930662#2 -951930662#1 -951930662#1.134 -951930662#0 -951930661#0 877395784#7 877395784#8 877395784#8.44 877395784#9 877395784#10 877395784#10.31 877395784#10.53 877395784#11 877395784#11.34 877395784#12 877395784#13 877395784#13.21 877395784#14 877395784#14.58 877395784#15 877395784#17 877395784#17.13 877395784#17.29 -951946816#15 -951946816#14 -951946803#1 -951946803#1.55 -951946803#1.59 -951946803#1.61 -951946803#1.64 951946795#1 951946795#2 951946795#3 951946795#4 -951946799 951951639#9 951946798#2 951946795#7 -951946797 951951639#11 951946796#0 951946804 951946804.28 951946804.31 951946804.34 951946804.37 951946795#11 951946795#11.34 951946795#11.40 951946795#11.45 -951887683 -951887684 -951887682#6 -951887682#5 951887686#0 951887686#1 -671756019#4 -951961235 951961234#1 -951878265#2 -951878265#1 -951878266#5 -951878266#5.22 -951878266#5.29 -951878266#5.37 -951878266#4 -951878266#4.37 -951878266#2 -951878266#1 -951878266#1.39 -951878266#1.47"/>
</vehicle>
<vehicle id = "veh20" type= "veh_passenger" depart="21630" >
<route edges =" -45342801#4 45342799#23 951370988 951370988.6 951370988.11 951370988.16 902433317#6 -951368597 45342799#26 45342799#27 45342799#27.15 45342799#27.20 45342799#27.25 45342799#27.36 972507120#0 972507120#2 45342812#0 45342812#1 45342811#2 45342811#2.66 45344273#23 45344273#23.11 -951379890#1 -951379890#1.37 -951379890#1.47 -951379890#0 -951379890#0.11 -951379890#0.26 -951379890#0.32 -951379890#0.35 -951379890#0.37 -951379890#0.41 -951379890#0.82 -951379890#0.84 -951379890#0.86 -951379890#0.88 -951379890#0.89 -951379890#0.91 -951379890#0.93 -45344320#0 -45344320#0.48 -45344320#0.63 -45344320#0.71 -45344320#0.79 -45344273#19 -45344273#18 -45344273#18.17 45344321#0 45344321#1 897252876#7 897252876#8 -902433295#1 -951370982#1 -951370982#0 -45344293#1 -45344293#1.78 -45344293#0 -45344273#13 -45344273#12 -45344273#11 -45344273#10 -45344273#10.42 -45344273#9 -45344273#8 -45344273#8.10 -45344273#7 -45344273#7.22 -45344273#6 -45344273#6.40 -45344273#6.59 -951384598#3 -951384597 -951384597.29 -951384597.36 -951384597.43 -45344273#3 -45344273#3.6 -45344273#3.14 -45344273#3.31 -45344273#3.48 -45344273#2 -45344273#2.6 -45344273#2.24 -951404493 -951404493.17 -951404493.21 -951404493.24 -951404493.26 -951404493.29 -951404493.32 -951404493.38 -951404493.57 -951404493.66 -951404493.74 -700249212#0 -700249213#9 -700249213#7 -700249213#7.47 -700249213#7.56 -700249213#7.59 -700249213#7.61 -700249213#7.65 45344290#0 45344290#0.48 45344290#0.50 45344290#0.52 45344290#0.55 45344290#1 -45344292#3 45344295#0 45344295#1 45344295#1.21 45344295#1.34 45344295#1.62 45344305#0 45344305#1 45344304#9 -951370970#2 951370963 897252863#5 897252863#6 897252863#7 45344287#3 45344287#3.3 45344287#3.50 700249213#3 700249213#4 700249213#4.7 700249213#4.65 700249213#4.70 700249213#4.76 700249213#5 700249213#5.63 -897252869#3 -897252869#2 -897252869#1 -45344315#0 -45344315#0.31 -951404492 700249212#3 -45342808#8 -45342808#7 -45342808#7.16 -45344273#0 -897252881 -45378637#10 -45378637#9 -951404484#10 -951404483#1 -951404474#1 951404473 -951404484#6 -951404484#5 -951404484#4 -951404484#4.8 -951404484#4.11 -951404484#4.13 -951404484#4.15 -951404484#3 -951404484#3.5 -951404484#3.9 -951404484#3.14 -951404484#3.25 -951404484#3.32 -951404484#2 -951404484#2.19 -951404484#2.23 -951404484#2.26 -951404484#2.29 -951404476 -951404476.16 -951404476.32 -951404476.50 -951404476.59 -951404476.68 -951404476.84 -951404476.93 -951404476.101 -951404476.106 -951404476.113 971495602#7 971495602#7.32 971495602#7.56 971495602#8 971495602#8.24 971495602#8.86 45340579#6 -908560887#8 -908560887#8.9 -908560887#8.22 -908560887#8.29 -908560887#8.34 -908560887#8.39 -908560887#8.43 -908560887#8.49 -908560887#8.57 -908560887#8.62 -908560887#8.67 -908560887#8.71 -908560887#7 -908560887#7.10 -908560887#7.18 -908560887#7.26 -908560887#7.31 -908560887#7.34 -908560887#7.37 -951435494 -951435494.8 -951435494.19 -951435494.25 -951435494.33 -951435494.43 -951435494.50 -951435494.55 -951435494.60 -951435494.65 -313316104#4 -313316104#4.4 -313316104#4.18 -313316104#4.31 -313316104#4.41 -313316104#4.56 -313316104#3 -313316104#2 -313316104#2.13 -313316104#2.35 -313316104#2.44 -313316104#1 -313316104#0 -313316082 -45378649#12 -45378649#11 -45378649#11.22 -45378649#10 -45378649#10.20 -951355292 -951355298#1 -951355298#1.5 -951355298#1.10 -951355298#0 -951355298#0.4 -951354759#1 -951354759#1.6 -951354759#0 -951354759#0.4 -951354759#0.15 -951354759#0.20 -951354759#0.24 -45378649#5 -45378649#5.24 -45378649#5.57 -45378649#5.68 -45378649#3 -45378649#3.8 -896786265#8 896786264 896786264.45 896786264.99 896786263#1 896786263#2 896786263#2.22 896786263#4 -951358821#2 -951358821#2.84 -951358821#2.87 -951358821#2.89 -951358821#2.91 -951358821#2.98 -951358821#1 -951358822#1 -951358822#1.32 -951358822#1.34 -951358822#1.36 -951358822#1.37 -951358822#1.39 -951358822#1.41 -951358822#1.61 -951358822#1.65 -951358822#1.67 -951358822#1.69 -951358822#1.71 -951358822#1.74 -951358822#1.88 -951358822#0 -951358822#0.4 -951358822#0.8 -951358822#0.13 -951995493#1 -951995493#0 -951995491#1 -951995491#0 -896786266#12 -896786266#11 -896786266#11.7 909024253#0 909024253#1 909024253#1.45 909024253#2 909024253#2.16 909024252#1 -896786266#7 -896786266#6 -896786266#6.39 896786260#1 896786260#1.37 896786260#3 896786257#1 896786257#2 896786257#2.28 896786257#2.57 896786257#3 896786257#3.14 896786257#4 896786257#5 896786257#6 896786257#6.8 896786257#6.44 896786257#6.53 -896786293#4 -896786293#3 -896786293#3.1 -45378665#2 -45378665#2.36 -45378665#1 909024239#0 909024239#1 909024239#1.17 -909024237#1 -909024237#1.34 -909024237#1.71 -909024237#1.74 -909024237#1.78 -909024237#1.82 877398366#1 877398366#1.15 877398366#2 877398366#2.36 -951983585 -951975994 896786325#3 -896786323#0 -896786323#0.137 -896786323#0.139 -896786323#0.141 -896786324#0 -896786324#0.19 -896786324#0.132 -896786324#0.177 -877395784#19 -877395784#17 -877395784#17.8 -877395784#17.24 -877395784#15 951946833#0 951946833#1 951951640 951946817#2 -951951641 951946833#3 951946833#4 951946833#5 -951951632#2 -951951632#2.4 -951951632#2.8 -951951632#2.12 -951951632#0 -951946805#1 -951946805#1.3 -951946805#1.6 -951946805#1.10 951946835#4 951946835#5 951946835#5.21 951946835#5.25 951946835#5.28 -951946805#4 -951946805#3 951946837#0 951946837#1 951946837#2 951946834#1 -951946833#7 951951631#0 951951631#1 951951635#2 -951946806#8 -951946806#7 -951946806#6 -951946806#6.36 -951946806#6.39 -951946806#6.41 -951946806#6.44 -951946806#4 -951946806#2 951951630 951946833#11 951946833#11.92 951946833#11.95 951946833#11.98 951946833#11.101 -951946806#0 -952365020 -952365021 -951878231#2 -951878231#1 -951878231#1.26 -951868611#0 -951951643#4 -951951643#3 -951951646 -951951642#2 876509484#3 -951951650 -951951648#2 -951951642#0 -951878263#5 -951878269#15 -951878269#14 -951878269#13 -951878269#12 -951878269#10 -951878269#9 -951930614 951878270#4 -951891764#2 -951887654#3 951891765#2 -951891763#0 -951891764#0 951887660#2 -951887662 -951887661#1 -951887661#0 904196454#4 951887664#2 951887663#1 951887663#2 951887661#3 951878266#0"/>
</vehicle>
</routes>
