<?xml version="1.0" encoding="UTF-8"?>
<routes xmlns:xsi="http: // www.w3.org/2001/XMLSchema-instance" xsi:noNamespaceSchemaLocation="http: // sumo.dlr.de/xsd/routes_file.xsd">
<vType id="veh_passenger" vClass="passenger"/>

<vehicle id = "veh0" type= "veh_passenger" depart="0" >
<route edges =" -45342801#4 -45342801#3 -45342801#2 -45342801#1 -45342801#0 45342798#2 45342798#3 45342798#4 45342798#5 45342813#0 45342813#1 45342813#2 -45342814#1 44740902#11 44740902#12 44740902#13 44740902#14 44740902#14.81 44740902#14.94 -874839172#0 -44740943 -313316091#20 951438760#0 951438760#1 -44740929#4 -951438759 44740922#2 44740922#2.25 44740953#0 44740953#2 44740953#3 44740953#4 44740953#5 44740953#6 44740953#7 44740949#2 -44740919#1 -44740919#0 44740920#8 -313316091#0 -313316091#0.27 -313316091#0.72 -313316091#0.80 -971495601#9 -971495601#9.28 -971495601#8 -971495601#7 -971495601#6 -971495601#5 -971495601#3 -971495601#1 -971495601#0 -313316086 -44739144#26 -44739144#24 -44739144#22 -44739144#21 -44739144#20 -44739144#19 -44739144#19.14 -44739144#18 -877398366#21 -877398366#20 -877398366#19 -877398366#18 -877398366#17 -877398366#17.7 -877398366#16 -877398366#15 -877398366#15.29 -877398366#14 -877398366#14.72 -877398366#13 -671191680#14 -671191680#13 -671191680#11 -671191680#9 -671191680#8 -671191680#6 -896786326#1 -896786326#0 -896786328#0 -896786328#0.177 -951951638#10 -951951638#10.18 -951951638#9 -951951638#8 -951951638#7 -951951638#5 -951951638#4 -951951638#3 -951951638#2 -951946794#1 -951946794#0 951946792#1 896786337#8 896786337#8.8 -951887683 -951887684 -951887682#6 -951887682#5 -951887682#4 -951887682#3 951887692 -951887691#0 -951887682#0 -951887700#14 -951961240#3 -951961240#1 -951961245 951891772#0 -951891773 -951891771#0"/>
</vehicle>
<vehicle id = "veh1" type= "veh_passenger" depart="0" >
<route edges =" 45342801#5 45342801#5.32 902433317#3 902433317#4 902433317#6 902433317#7 902433317#8 902433317#8.29 951368593#1 972507120#2 45342812#0 45342812#1 45342811#2 45342811#2.66 45344273#23 45344273#23.11 45344273#24 -897252873#2 -897252873#1 -897252873#1.42 -897252873#0 -897252873#0.25 897252876#4 45344320#2 45344320#3 -45344331#4 45344327#1 903341090 -45344335#4 -950235690#1 -950235690#0 -950235690#0.14 700254525#11 700254524#0 700254523 -700254525#0 45344272#4 950233988#0 45344283#9 45344283#10 45344283#10.15 45344283#10.46 45344283#10.69 45344283#10.88 45344283#10.150 45344283#10.196 45344283#10.260 45344283#10.377 45344283#10.468 45344283#10.514 670655885 670655885.12 896892975 971495602#12 971495602#12.26 971495602#12.77 951442813 951442812#0 -896786335#50 -896786335#49 -896786335#48 -896786335#48.15 -896786335#47 -896786335#46 -896786335#44 -896786335#44.9 -896786335#44.71 -896786335#43 -896786335#42 -896786335#42.22 -896786335#41 -896786335#40 -896786335#39 -896786335#39.27 -896786335#37 -896786335#36 -896786335#34 -896786335#33 -896786335#32 -896786335#32.17 -896786335#31 -896786335#31.22 -896786335#30 -896786335#29 -896786335#29.17 -896786335#28 -896786335#27 -896786335#27.19 -896786335#26 -951995494#1 -951995491#2 -951995491#1 -951995491#0 -896786266#12 909024250#0 909024250#1 909024250#2 909024250#4 909024250#5 909024250#6 909024239#0 909024239#1 909024239#1.17 909024239#2 909024239#2.40 -951983585 -951975994 -896786324#1 -896786324#0 -896786324#0.19 -896786324#0.132 -896786324#0.177 951951639#0 951946803#0 951946795#1 951946795#2 951946795#3 951946795#4 951946795#6 951946795#7 951946795#9 951946795#10 951946795#11 951946795#11.34 951946795#11.40 951946795#11.45 896786337#10 896786337#10.21 -951887700#20 -951887700#19 -671756019#4 -951961235 951961234#1 -951878265#2 -951878265#1 -951878265#0 951878264#2 -951878263#3 -951878266#4 -951878266#4.37 -951878266#2 -951878266#1 -951878266#1.39 -951878266#1.47"/>
</vehicle>
<vehicle id = "veh2" type= "veh_passenger" depart="0" >
<route edges =" 951370989 951370989.40 951370989.47 951370989.53 951370989.56 951370989.62 951370989.64 951370989.67 -902433320#1 -902433320#0 902433321#2 45342799#21 45342809#0 45342809#1 45342809#2 45342809#3 45342809#4 45342809#5 45342809#6 45342809#7 45342809#8 44740885#10 -45342826#1 -45342826#0 45342825#1 45342825#2 45342828#0 45342828#1 45342828#1.100 -45344273#6 -45344273#6.40 -45344273#6.59 -951384598#3 -951384598#2 -951404491 -951404491.16 -951404491.28 -951404491.40 -951404491.51 -951384599#0 700249213#9 700249213#10 700249213#11 45342808#10 45342808#11 45342808#11.24 45342808#12 -897252871 -897252870 -45344310#2 -45344310#1 -45344310#0 -45344310#0.10 -45344310#0.18 -45344310#0.30 -45344310#0.41 -45344310#0.52 971495602#8 971495602#8.24 971495602#8.86 -313316104#6 -45378650#5 -45378650#5.11 -45378650#4 45378645#0 45378645#0.44 -908846596#3 -908846596#2 45378650#1 -908846593 -908846593.73 908560901#8 908560901#8.23 908560901#8.56 -313316104#0 -313316082 -45378649#12 896786296#0 896786296#1 896786296#1.36 -896786262#6 -896786262#6.15 -896786262#5 -896786262#4 -896786262#4.31 -896786262#3 -896786262#3.9 -896786262#1 -896786262#0 -896786262#0.33 -896786262#0.115 -896786260#1 -896786260#1.5 -896786260#0 -896786260#0.52 896786257#4 909024248 909024248.50 -45378665#3 -45378665#3.29 -45378665#3.50 -45378665#2 -45378665#2.36 -45378665#1 -45378665#0 -45378665#0.39 -45378665#0.75 -896786335#14 -896786335#14.27 -896786335#13 -896786335#12 -896786335#12.15 -896786335#11 -896786335#10 -896786335#10.38 -951976010#1 -951976011#0 896786321#2 -896786320#3 -896786320#3.5 -896786320#1 -896786320#0 -896786316#3 -896786316#2 -896786316#1 -896786316#1.33 -896786314 -951930663#1 -951930663#0 -877395784#11 -877395784#11.58 951946825#0 951946825#1 -951946816#4 951946844 877399011#1 951946810#2 -896786337#14 -896786337#14.40 -896786337#14.111 -952365020 -952365021 -951878231#2 -951951643#6 -951951643#5 -951951643#4 -951951643#3 -951951643#2 876509484#2 -951951642#1 -951951642#0 -951878263#5 -951878269#15 -951891772#2 -951891774 951891771#2 951878270#2 877401978#0 877401978#1 951878266#0"/>
</vehicle>
<vehicle id = "veh3" type= "veh_passenger" depart="3605" >
<route edges =" -45342801#4 -45342801#3 -45342801#2 -45342801#1 -45342801#0 45342798#2 45342798#3 45342798#4 45342818#0 -45342817#2 -45342817#1 45342816#0 45342816#1 -45342814#2 -45342813#2 951370984#2 44740902#10 44740902#10.9 44740902#11 44740902#12 45342802#1 45342802#2 -45342803#1 -45342803#0 -45342843#2 951417477 44740957#1 45342843#0 45342844 -45342808#0 -45342808#0.42 671399046#0 671399046#0.17 671399046#0.59 44740957#4 -671399051#1 -671399051#0 -44740942#1 -44740901#0 -313316089 -951438761 44740929#6 44740967#1 44740967#2 -44740930#16 -44740930#15 -44740930#14 -44740930#13 951421954 951421954.184 44740929#10 955813295#1 955813295#1.169 955410233 955410234 102277232#1 44739167#9 44740930#8 44740925#0 44740925#1 -44740926#4 -951358803 44740955#1 44740955#2 44740924#1 44740927#16 -44740923#2 -44740923#1 44740989#1 44740922#7 44740930#11 44740929#0 44740967#4 -44740922#3 -44740922#2 -44740922#2.83 -44740922#1 -672215965#1 -672215965#0 -672215965#0.46 44740929#4 -951438760#1 -951438760#0 -313316091#19 -313316091#18 -313316091#18.26 -313316091#17 -313316091#16 -313316091#14 -313316091#14.20 -671761561 45378689#5 45378639#1 45378639#1.38 45378658#0 45378658#1 45378658#2 45378640#2 -45378683#4 -45378683#4.30 -45378683#4.33 -45378683#4.36 -45378683#4.38 -45378683#4.41 -45378683#4.68 -45378683#4.75 -45378683#4.81 -45378683#4.88 -45378683#3 -45378653#6 -45378685#3 -45378655#3 -45378655#2 -45378683#1 -45378683#0 -45378683#0.55 313316091#8 313316091#8.6 -44740946#1 44740948#0 44740948#1 -44740940#1 44740945#0 44740945#1 -44739167#13 44740953#4 44740953#5 951358801 -44740927#10 -44740927#9 -44740927#8 -44740927#6 -951358798#1 -951358798#1.14 -951438767 -951438767.19 -951438767.24 -951438767.32 -951438767.38 -951438767.43 -44740927#3 44740920#3 951358797#0 951358797#0.19 951358797#0.36 951358797#0.45 951358797#0.49 951358797#0.51 951358797#0.53 951358797#0.55 951358797#0.57 951358797#0.58 951358797#0.64 951358797#0.66 951358797#0.68 951358797#0.70 951358797#0.72 951358797#0.75 951366797 951366797.33 951366797.34 951366797.36 951366797.38 951366797.40 951366797.54 951366797.60 951366797.64 951366797.69 951366797.70 951366797.72 951366797.74 951366797.75 951358797#2 951358797#2.23 951358797#3 -951358800#0 44740918#2 44739163#19 44739163#20 -313316091#2 -313316091#2.44 -313316091#1 -313316091#1.32 -313316091#0 -313316091#0.27 -313316091#0.72 -313316091#0.80 45340579#18 45340579#18.164 44740932#0 44740932#2 44740916#8 44740916#9 44740916#9.64 44740916#11 44740916#12 -909019766#1 -909019766#1.6 -909019766#1.14 -909019766#1.30 -909019766#1.52 909019765 909019768#1 909019767#0 909019767#0.42 909019767#1 909019767#1.24 909019767#1.35 -971495601#5 -45378660#1 -45378660#1.21 -45378660#1.52 -45378660#1.88 -45378660#1.126 -908560900#3 -908560900#2 -908560900#1 908560901#22 908560901#22.77 908560901#22.89 -971495601#0 -313316086 -44739144#26 -44739144#24 -44739144#22 -44739144#21 -951346849 -909778546#0 -903953325#2 -903953325#2.18 -903953325#1 903953324#0 951361609 -909778547#0 -44739144#19 -44739144#19.14 -44739144#18 -877398366#21 -877398366#20 -877398366#19 896786289#2 702673217#3 702673217#4 702673217#5 -896786294#0 -896786294#0.13 904286386#0 909024293#2 909024293#3 896786290#5 -877398366#15 -877398366#15.29 -877398366#14 -877398366#14.72 -877398366#13 -671191680#14 877396860#11 877396860#12 877396860#13 -896786290#2 -904286383#1 -904286383#0 904286386#3 904286386#3.9 904286386#3.31 904286386#4 904286386#4.19 -904286385#15 -904286385#15.42 -904286385#13 -904286385#13.24 896786290#0 -904286381#6 904286380#0 904286383#3 904286383#3.17 904286383#4 -904286382#0 904286381#2 904286381#3 904286381#3.4 904286381#3.18 -904286372#1 -904286375#0 -904286385#10 -904286385#9 -951992348 904371486#1 904371487#0 -904371489#2 951973468#0 904286385#6 -904286373#4 -904286373#3 -904286373#3.24 -904286373#3.27 -904286373#2 -904286373#2.6 -904286373#1 -951975997 -671191680#8 -671191680#6 -896786326#1 -896786327#1 -896786327#1.48 -896786327#1.55 -896786327#1.60 -896786327#1.64 -896786327#1.68 -896786327#1.74 -896786327#1.124 -896786327#1.170 -896786327#1.205 -896786327#1.211 -896786327#0 877395784#22 877395784#22.56 904371492#0 904371492#0.68 904371492#2 -904371491 -904286385#2 -904286385#1 671191681#0 671191681#1 -951973437#1 -951973437#0 -951973436#0 -951973436#0.3 -951973436#0.8 -877395784#25 -877395784#25.55 -952002224#7 -952002224#7.17 -952002224#7.71 -952002224#6 -952002224#5 -952002224#5.5 -952002224#4 -952002224#4.27 -952002224#3 -952002224#3.30 -952002224#3.48 -952002224#3.80 904286410#0 904286410#0.33 904286409#0 -951874860#1 951874872 -951874859#1 -951874859#0 -904286402#2 -904286402#1 951874860#3 -951874871 -951874871.18 -951874871.21 -951874871.24 -951874871.28 951874858#2 896786339#3 896786339#3.3 896786339#4 896786339#4.4 -904286410#3 -904286410#2 -904286411#3 -904286411#2 -904286411#2.14 -951874848#1 -951874848#0 -952002224#1 896786337#4 896786337#5 896786337#5.11 896786337#6 896786337#7 896786337#8 896786337#8.8 -951887683 -951887684 -951887682#6 -951887682#5 951887686#0 -951887688#2 951887690 951887700#18 -671756019#4 -671756019#3 951961253 951961253.63 951961253.68 951961253.73 951961233#1 951961233#3 951961233#3.5 951961233#3.10 951961233#3.14 951961233#3.19 951961233#4 -951887687#1 -951887687#1.51 -951887687#1.58 -951887687#0 -951887687#0.5 -951887682#3 951887692 -951887691#0 -951887682#0 -951887700#14 -951887679#2 951887680 951887678#2 951887700#10 951887700#11 951961240#0 951961240#0.54 951961240#0.57 951961240#0.59 951961240#0.62 -951961245 951891772#0 -951891773 -951891771#0"/>
</vehicle>
<vehicle id = "veh4" type= "veh_passenger" depart="3605" >
<route edges =" 45342801#5 45342801#5.32 902433317#3 902433317#4 902433317#6 902433317#7 902433317#8 902433317#8.29 951368593#1 972507120#2 45342812#0 45342812#1 45342811#2 45342811#2.66 45344273#23 45344273#23.11 45344273#24 -897252873#2 -897252873#1 -897252873#1.42 -897252873#0 -897252873#0.25 897252876#4 -45344320#1 -45344320#0 -45344320#0.48 -45344320#0.63 -45344320#0.71 -45344320#0.79 -951441770 45342810#5 -973399407#2 -45342830#1 44740885#16 44740885#17 902433295#0 902433295#0.35 902433295#1 902433295#2 45344329#4 45344333#0 45344333#1 45344333#2 45344331#2 951381435 45344329#6 45344327#0 45344327#1 903341090 -45344335#4 -45344335#3 -45344335#2 -45344335#1 -45344335#0 -45344335#0.49 45344297#2 45344297#2.7 45344297#2.17 45344297#2.22 45344297#2.28 45344297#2.54 45344297#2.118 950399187#0 -950399186 -950399186.23 -950399186.27 -950399186.30 -950399186.33 700254525#3 700254525#5 700254525#6 700254525#8 700254525#9 950235690#0 950235690#0.11 950235691#0 950235691#0.22 950235691#1 -45344320#7 -45344320#7.6 -45344320#7.12 -45344320#7.25 -45344320#7.29 -45344320#7.33 -45344320#7.37 -45344320#7.54 45344335#8 -45344336#7 -45344336#7.6 -45344336#6 -45344336#6.35 -950235695#3 -950235695#2 950235702 950732875#1 950235694#2 950235692#1 950235692#2 950235697#0 950235697#2 950235697#3 -950235700#1 -950235700#0 -700254524#1 700254523 -700254525#0 -45344272#3 -45344272#3.16 -45344272#3.30 -45344272#3.79 -45344336#3 -45344336#2 950553578#1 950553577#0 950553577#0.25 -950553576 -45344283#2 -45344283#1 -45344283#1.3 -45344283#0 45344282#1 45344282#2 45344282#2.1 45344282#2.36 -950238187 950238186#0 -950241847#3 45344284#9 45344271#6 45344271#6.35 45344285#0 950235732#5 950235732#5.16 951077734#0 950241846#2 45344285#2 950241823#0 950241823#1 950241823#1.18 -951043903 -950241846#0 45344284#11 950241823#4 950929127#1 950929127#2 950929127#3 950929127#3.14 950241828#0 950241821#5 950241831#2 951014859 951014859.40 951014859.44 951014859.47 951014859.50 951014859.58 951014859.60 951014859.62 951014859.64 951014868#0 951014868#1 -950241823#7 -950241823#6 -950241823#6.46 -950241818#2 950929121#0 950929121#0.14 950929121#0.18 950929121#0.21 950929121#0.26 950241819#0 951014869 -950241821#12 -950241821#11 -950241821#11.8 -950241821#11.12 -950241821#10 -950241821#10.5 950241819#3 950241819#4 950241819#5 951014855#2 950241823#9 950241823#10 -897252878#9 -897252878#9.96 45344271#0 45344271#1 45344271#1.39 45344271#2 45344271#2.26 45344271#3 45344271#3.47 45344271#4 -902433322#2 -950241847#1 -950241859#1 -950241859#0 -950241859#0.36 -950241859#0.41 -950241859#0.44 -951043905#0 -950241861#1 950241857#0 950241863 950241863.49 950241863.52 950241863.55 950241857#2 950241857#3 950241857#3.27 950241857#3.51 950241857#4 -950243393#0 -950394096#1 -950394095 -950394091#1 -950241868#1 -950241868#1.8 -950241868#1.33 -950241868#0 950241866#4 950241866#5 950241865#1 950394090#2 950394090#2.13 950394090#2.18 -950394093#0 950241233#3 950241866#8 950241866#9 -45344284#5 -45344284#4 -950238192#4 -950238192#3 -950238192#2 -950238192#2.18 -950238192#2.21 -950392117#1 -950392117#0 -950392117#0.22 950241230#0 -950394089 -950394089.15 -950394089.18 -950394089.21 -950241229#2 950392116#1 45344280#8 45344280#8.17 45344280#9 45344280#9.7 45344280#11 45344280#11.11 45344280#11.23 45344280#12 45344280#13 45344280#14 45344280#14.13 45344280#15 45344283#5 45344283#6 45344283#6.72 45344283#6.89 45344283#6.131 950233989#0 950233989#1 950233989#1.12 950233989#1.21 950318421#0 950318421#0.10 950318421#0.18 950318421#0.29 950318421#0.39 -950318420 -950318420.14 -950318420.24 -950318420.38 -950318420.55 -950318420.72 -950318420.83 -950318420.94 45344283#8 45344283#9 45344283#10 45344283#10.15 45344283#10.46 45344283#10.69 45344283#10.88 45344283#10.150 45344283#10.196 45344283#10.260 45344283#10.377 45344283#10.468 45344283#10.514 670655885 670655885.12 896892975 971495602#12 971495602#12.26 971495602#12.77 951442813 951442812#0 -896786335#50 -896786335#49 -896786335#48 -896786335#48.15 -896786335#47 -951354779 -951354779.16 -951354779.25 -951354779.33 -951354779.41 -896892981#9 -896892981#8 -896892981#8.18 -896892981#8.50 -896892981#8.78 -951358829#1 -951358829#1.27 -951358829#1.80 -951358829#0 -951358829#0.3 -951358829#0.7 -951358829#0.10 -950233986#8 -950233986#8.2 -951350560 950260764#3 -950233986#2 951132945#0 951132945#1 -951349908#0 -896893025#13 -896893025#13.17 -896893025#12 -876614662#1 -876614662#0 -951998787#1 -951998787#0 -951998787#0.10 -951998787#0.14 -951998787#0.18 -951998787#0.21 951998783#2 951998783#3 896892986#0 896892986#1 896892986#1.7 896892986#1.21 896892986#2 896892986#2.44 896892986#2.82 -896892984#2 -896892984#1 951998762#0 951349909#1 876614662#4 876614662#4.24 876614662#4.82 876614662#4.124 876614662#5 -896892983#7 -896892983#6 -951349907#3 951354775 -951354774#0 -951350966#3 -951354777 951349909#6 951349909#6.57 950233986#4 950233986#4.24 950233986#4.31 950233986#4.37 950233986#4.46 950233986#4.70 950233986#4.73 950233986#4.74 950233986#4.76 950233986#5 950233986#5.1 950233986#5.5 951350964 -951350966#0 951350967#1 951350967#1.12 951350967#2 896892981#3 896892981#4 896892981#5 951349912#0 951349912#0.14 951349912#0.18 951349912#0.25 951349912#0.33 951349912#0.69 951349912#0.72 951349912#0.74 951349912#0.76 951349912#1 951349912#1.12 951349912#1.14 951349912#1.16 951349912#1.19 -896786335#44 -896786335#44.9 -896786335#44.71 -896786335#43 -896786335#42 -896786335#42.22 896892983#0 896892983#0.10 896892983#1 896892983#1.19 -951421976 896892982#2 -896786335#39 -896786335#39.27 -896786335#37 -896786335#36 -951349917#1 -951349917#1.14 -951349917#1.29 -951349917#1.41 -951349917#1.59 -951349918 -951354772#1 -951354772#1.39 -951354772#1.50 -951354772#1.59 -951354772#0 -951354772#0.6 -951355289#1 -951355289#0 -896893028#1 -896893028#1.14 -951998766#1 -951998766#1.58 -951998766#1.64 -951998766#1.69 -951998766#1.73 896892983#10 896892983#10.17 896892983#11 877388646#5 877388646#5.32 896786297#3 896786297#4 896786297#4.10 896786297#4.18 896786297#4.21 896786297#4.23 896786297#5 896786297#5.72 -896892990 -896892991#0 -896892991#0.12 896893005#3 896893015#0 896893015#1 896893015#1.26 896893015#2 896893015#3 -896893018#0 -877388728#13 -877388728#13.55 -877388728#11 -896893005#1 -896786307#9 -896786307#9.12 -896786307#9.63 -896786307#9.67 -896786307#9.69 -896786307#7 -896786307#7.13 -896786307#6 -896786307#6.13 -896786307#6.32 -896892993 -896892993.12 -896892993.38 -896892998#1 -896892998#0 -896892998#0.14 -896892994#0 896786310#2 896786310#2.33 896786310#2.46 896786309#6 896786309#6.19 896786309#6.40 896786309#6.67 -896892996#1 -896892996#1.16 -896892996#1.37 -896892996#1.52 -896892996#1.86 -896892996#0 -877388728#5 -877388728#5.9 -877388728#5.30 -877388728#4 -877388728#4.18 -877388728#3 -877388728#3.29 896893023#0 896893023#0.34 -896893021#12 -896893021#12.33 -896893021#11 951988584 951988585#1 -952213575#0 -896893021#9 -896893021#9.73 -896893021#7 -896893021#7.63 -896893021#7.71 -896893021#7.74 -896893021#5 -896893021#5.4 -896893021#5.17 -896893021#4 -896893021#4.33 896893020#0 896893020#0.22 896893020#0.45 -952213570#0 -952213570#0.40 -952248230#2 -951988588#1 -951988617 -951988590#5 951988589 951988589.27 951988589.31 951988589.35 951988589.38 -952248230#0 -951988590#1 896893020#2 896893020#2.56 896893020#2.154 896893020#2.219 896893020#2.250 -951988591#2 -951988591#2.11 -951988591#2.25 -951988591#2.40 -951988591#1 -951988591#1.3 -951988590#8 -951988594 -896786309#10 -896786309#10.7 -896786309#8 -896786309#8.9 -951930617#12 -951930617#11 -951930617#10 -951930617#10.5 -951930617#10.15 -951930617#9 -951988595#2 -951988595#1 -951988595#1.5 -951988595#1.15 -951988595#0 -951988595#0.6 -951988600#1 -951988607#3 951935274#6 951935274#7 -896786309#17 -951930620 951930617#6 -951930618#2 -951983608#2 -951983608#1 -951983611#3 -951983610 -951983592#5 -896786310#6 -896786310#6.9 951988574#0 -951988576#0 896786309#4 896786309#4.4 896786309#4.46 -951995496 -951995496.38 -951995496.44 -951995496.48 -951995496.52 -951995496.56 -896786307#0 -896786307#0.54 896786308#1 896786308#1.21 896786308#2 896786308#2.17 877388976#1 877388976#1.12 877388976#1.51 877388976#1.72 -896786304#0 -896786304#0.49 896786308#6 896786308#6.25 896893013#5 896893013#5.3 896893013#5.5 896893003 896893004#2 896893004#3 896893004#3.24 896893004#4 896893004#5 896786335#24 -951995494#1 -951995494#0 951354763#4 951354763#5 951995492#1 -896786265#0 909024253#0 951995490#0 909024242 -896786293#6 909024251 909024251.27 -909024250#2 -909024250#1 909024249 909024249.20 909024249.72 -896893011#1 -896893012#6 -896893012#6.12 -896893012#5 -896893012#5.11 -896893012#4 -896893012#3 896893006 -896893008#0 896786300#2 896786300#2.40 896786300#2.70 896786300#3 896786300#3.17 45378665#0 45378665#0.11 45378665#0.47 909024239#0 909024239#1 909024239#1.17 -909024237#1 -909024237#1.34 -909024237#1.71 -909024237#1.74 -909024237#1.78 -909024237#1.82 877398366#1 877398366#1.15 877398366#2 877398366#2.36 877398366#3 -951995475#3 -951995475#2 896786292#0 896786292#0.10 896786293#0 896786293#2 896786293#2.8 896786293#2.28 896786293#2.36 896786293#2.45 896786293#2.48 896786293#2.52 45378665#3 45378665#3.37 45378665#3.58 909024287#0 909024287#0.8 909024287#0.15 909024287#0.65 -909024286 -909024289#2 -909024288#1 -909024288#0 -896786287#2 -896786287#1 -951995479#0 -896786286#1 -896786286#1.14 -896786286#0 -896786286#0.12 -877398366#8 -877398366#8.18 -877398366#8.84 -904371459 -904371459.17 -904371459.33 -904371460#1 951995474 877396860#8 -904371462#0 -904371463#0 -904371465#0 -904371458#1 -904371458#0 -904371458#0.40 904371460#4 904371460#4.17 904371460#4.32 904371460#5 -896786328#3 -896786328#3.70 -896786328#2 -896786328#2.49 -896786328#1 -896786328#0 -896786328#0.177 -877395784#20 951951639#0 951951639#1 951946802 951946795#2 951946795#3 -951946800#1 951951639#7 951951639#8 951951639#9 951946798#2 951946795#7 951946795#9 951946795#10 951946795#11 951946795#11.34 951946795#11.40 951946795#11.45 896786337#10 896786337#10.21 -951887700#20 671756019#0 -951961251#1 951961247#0 951961247#1 951961247#1.3 951961249#0 951961249#1 951961249#1.17 951961249#1.19 951961249#1.21 951961249#1.24 -951961255 -951961255.19 -951961255.22 -951961255.25 -951961255.27 951961248#1 876509484#7 876509484#7.4 876509484#7.22 951878263#0 951878263#0.8 951878263#0.15 951878263#1 951878263#1.39 951878263#1.46 951878263#1.53 951878263#1.72 951878263#1.75 951878263#2 951878263#2.2 -951878266#4 -951878266#4.37 -951878266#2 -951878266#1 -951878266#1.39 -951878266#1.47"/>
</vehicle>
<vehicle id = "veh5" type= "veh_passenger" depart="3605" >
<route edges =" 951370989 951370989.40 951370989.47 951370989.53 951370989.56 951370989.62 951370989.64 951370989.67 -902433320#1 -902433320#0 902433321#2 -45342799#20 -45342797#4 -951368600#1 -951368600#0 45342809#1 45342809#2 45342809#3 -45342798#2 -45342798#1 45342840#0 -45342810#2 -671416444#2 671416443#0 671416443#1 -671416440 671416442#2 -45342838#1 -45342838#0 -45342810#0 45342809#5 -45342836#2 -951441769 951370985#1 45342809#7 -45342814#5 -45342814#4 -45342803#5 44740885#9 44740885#9.112 45342809#9 -45342821#1 -45342821#1.44 -45342822#2 -45342820#1 -45342804#3 45342832#0 45342832#1 -45342822#0 45342831#3 45342809#12 45342809#14 45342809#15 -951417479 -45342805#1 -45342805#1.66 951417482#0 951417482#1 951417482#2 -45342831#0 -45342804#1 -45342804#0 45342808#2 897252872 897252872.36 45342833#0 45342833#1 45342833#2 45342833#3 -951366786 45342824#3 45342823#2 45342828#1 45342828#1.100 -45344273#6 -45344273#6.40 -45344273#6.59 -951384598#3 -951384598#2 -951404491 -951404491.16 -951404491.28 -951404491.40 -951404491.51 -951384599#0 -897252868#5 -897252869#2 897252861 897252860#1 -45344315#1 -45344315#1.25 -45344315#0 -45344315#0.31 700249213#11 45342808#10 951370965#0 951370965#0.26 951370965#0.30 951370965#0.33 951370965#0.37 951370965#0.40 -951417471 -951417471.23 -951417471.42 45342808#12 -897252871 -897252870 -45344310#2 -45344310#1 -45344310#0 -45344310#0.10 -45344310#0.18 -45344310#0.30 -45344310#0.41 -45344310#0.52 971495602#8 971495602#8.24 971495602#8.86 -313316104#6 -45378650#5 -45378650#5.11 45378646#0 45378646#0.20 45378646#1 -908846596#4 45378645#1 45378645#1.23 45378645#1.76 -45378647#2 -45378647#2.16 -45378647#2.30 908846595#0 908846595#0.61 908846594#0 45378650#0 45378650#0.11 908846596#2 908846595#2 908846595#2.72 -45378650#2 -45378650#2.42 -45378650#2.62 -908846593 -908846593.73 908560901#8 908560901#8.23 908560901#8.56 -313316104#0 -313316082 -45378649#12 -45378649#11 -45378649#11.22 -45378649#10 -45378649#10.20 -951355292 -951355298#1 -951355298#1.5 -951355298#1.10 951355297#2 951355297#2.63 -896786262#5 -896786262#4 -896786262#4.31 -951355295 951354762#1 951354762#1.1 951354762#1.3 951354762#1.20 896786261 -896786258#4 -896786258#2 -896786258#2.22 -896786256 -896786256.31 -896786256.68 -896786256.122 -909024254 -909024254.11 -909024254.37 -896786266#1 -896786266#1.7 -896786266#1.22 -896786266#1.30 -896786266#0 -896786266#0.9 -896786266#0.23 -896786266#0.37 -896786266#0.58 -896786266#0.78 -896786266#0.96 -45378665#11 -45378665#11.12 -45378665#11.33 -45378665#10 -45378665#8 909024255 909024255.12 909024255.40 909024255.70 896786266#4 896786257#2 896786257#2.28 896786257#2.57 896786257#3 896786257#3.14 896786257#4 909024248 909024248.50 -45378665#3 -45378665#3.29 -45378665#3.50 -45378665#2 -45378665#2.36 -45378665#1 -45378665#0 -45378665#0.39 -45378665#0.75 -896786335#14 -896786335#14.27 -896786335#13 -951983587#9 -896786303#1 -896786303#1.61 -896786303#0 -896786311#12 -896786311#12.40 -896786311#11 -896786311#11.60 -896786311#10 -896786311#9 -896786311#8 -896786311#7 -951930673#5 -951930673#4 -951930673#3 -951930673#3.17 -951930673#2 -951930673#2.6 -951930673#1 -951930675 877396172#5 896786320#1 951976009#0 -951976006#2 -951976006#1 -951976008 896786319#2 -896786315#4 -951976005 -896786317#0 -896786316#2 -896786316#1 -896786316#1.33 -896786314 -951930663#1 -951930662#1 -951930662#1.134 -896786312#2 -896786312#2.6 -896786312#2.21 -896786312#1 -896786312#1.17 -896786312#1.24 -896786312#0 -896786312#0.11 -896786312#0.35 -896786312#0.60 -896786312#0.135 -896786311#2 -896786311#1 -896786311#1.19 -896786311#0 -896786311#0.35 951983599 -951935291#3 -951935291#3.17 951930682#0 951930682#1 951930681#2 951930681#3 951930681#3.13 951983606#1 951930680#2 951930680#2.22 951930680#3 951930680#3.7 951930681#0 -951935254#1 -951935254#0 -951935254#0.6 -951935254#0.15 -951935254#0.25 877396480#3 951935280 951935280.26 951935280.31 951935280.37 951935255#1 951935255#1.24 951935255#1.31 951935255#2 951935255#2.6 877396480#5 877396480#5.5 877396480#5.10 877396480#6 877396480#7 877396480#7.18 877396480#8 877396480#8.7 -877389028#15 951935258 -951935257#1 -951935291#1 877389028#11 877389028#11.9 -951935289#1 -951935289#0 951935286#1 -951935287 -951930661#3 -951930661#3.14 -951930661#2 -951930661#0 877395784#7 877395784#8 877395784#8.44 877395784#9 951946815#0 -951946826 -951946825#0 877395784#11 877395784#11.34 877395784#12 877395784#13 877395784#13.21 951946817#0 -951946816#10 -951946816#9 -951946822 -951946821#1 -951946821#0 -951946821#0.2 -951946821#0.6 -951946821#0.9 -951946819#1 -951946819#0 -951946816#5 -951946816#5.8 -951946816#5.11 -951946816#5.14 -951946816#5.18 -951946816#4 -951946816#2 951946827 951946827.47 951946827.51 951946827.55 951946827.59 951946815#3 951946815#4 951946815#5 -951946814#0 -951946812#1 -951946813 951946810#1 951946810#2 -896786337#14 -896786337#14.40 -896786337#14.111 -952365020 -952365021 -951878231#2 -951951643#6 951951644#0 -951951642#4 -951951642#3 -951951642#3.15 -951951642#3.18 -951951642#3.20 -951951642#3.23 -951951642#3.36 -951951642#3.39 -951951642#3.41 -951951642#3.43 -951951642#2 -951951642#1 -951951648#1 951951649 -951878263#6 -951878263#5 -951878269#15 -951891772#2 -951891774 951891771#2 951930613 -951878269#9 951891767 -951891766#0 -950288028#0 -951878269#4 951878272#0 951878272#1 951878272#2 -951891763#2 -951891763#1 -951891763#0 951891764#1 951891764#2 -951878270#4 -951878270#3 877401978#0 951887660#0 -951887663#3 951887661#3 951878266#0"/>
</vehicle>
<vehicle id = "veh6" type= "veh_passenger" depart="7210" >
<route edges =" -45342801#4 -45342801#3 903341082#0 903341082#0.10 903341082#1 -951368605#1 951368604 -45342801#1 -45342801#0 45342798#2 45342809#4 45342809#5 45342809#6 -951370985#1 -951370985#0 -45342818#2 -45342818#1 -45342817#2 -45342817#1 -45342817#0 45342813#1 45342813#2 45342814#2 -45342816#1 -951370984#0 -45342803#6 -45342803#5 -44740885#8 -44740885#7 44740902#12 44740902#13 44740902#14 44740902#14.81 44740902#14.94 -44740942#2 -44740942#2.11 -44740942#1 44740901#1 -951417475#1 -974189220#3 -44740957#8 -44740957#7 -44740957#6 44740901#3 -671399058#2 -671399058#1 -671399058#0 -44740885#3 -44740901#6 -44740891#4 974189220#1 44740896#3 -44740959#1 -44740959#0 -44740895#2 -44740895#2.69 44740972#0 44740972#1 -44740969#4 -44740969#2 -951439006 -951439007 -951439008 -44740929#10 -44740929#9 -44740929#9.28 -44740960#1 44740962#0 44740962#1 44740962#2 44740930#16 -44740967#2 -951438763#1 -951438763#1.52 -951438762 -44740929#1 44740967#4 44740922#5 44740922#5.74 44740926#0 44740926#1 44740926#2 44740926#3 44740926#4 44740926#5 -44739167#10 -44739167#9 102277232#2 102277232#2.138 102277232#3 44739156#13 44739156#14 44739156#15 44739156#16 -44740927#4 951438767 951438767.14 951438767.19 951438767.25 951438767.33 951438767.38 951358798#1 951358798#1.17 44740927#6 -44740987 44740985#1 -44740983#0 44740981#1 -44739163#15 44740930#6 44740928#0 44740928#0.19 44740926#7 -951358806#1 -951358806#0 -951358801 -44740953#5 -44740953#4 -44740953#3 44740940#0 44740945#0 44740946#0 44740948#0 44740948#1 44740940#2 -671761561 -45378689#4 -45378689#2 45378688#0 45378688#1 45378687#1 -45378640#0 45378655#1 45378655#2 -45378684#1 -671178935 45378685#2 45378655#4 45378655#5 45378655#6 951358810#1 951358810#1.4 -45378656#0 -45378656#0.43 -45378656#0.46 -45378656#0.48 -45378656#0.49 -45378656#0.51 -45378656#0.58 -45378656#0.60 -45378656#0.62 -45378656#0.64 45378654#1 -45378657#3 -45378657#3.57 -45378657#3.61 -45378657#3.65 -45378657#3.69 -45378657#3.73 -45378657#3.78 -45378672 -45378672.64 45378673 -45378657#1 -44740931#2 -44740931#2.59 -44740931#1 -44740931#0 -44740918#0 44740920#6 44740920#8 -313316091#0 -313316091#0.27 -313316091#0.72 -313316091#0.80 45340579#18 45340579#18.164 45340579#19 45340579#19.12 45340579#19.84 45340579#20 45340579#20.80 955813297#0 -909019772#1 -909019772#1.10 -909019772#1.26 -909019772#1.29 -909019772#1.34 44740916#2 44740916#2.8 44740916#2.32 -909019775 -909019775.30 -909019776#2 -909019776#2.33 -909019776#2.36 -909019776#2.39 -909019776#2.41 -909019776#2.74 -909019776#1 -909019776#1.34 -909019776#0 -909019776#0.39 44740910#4 -44740933#2 -44740933#1 -44740933#0 -909019791#2 -909019791#1 -909019790#1 -909019790#0 -909019790#0.12 -44740934#4 -44740934#3 -44740934#3.33 -909019780#1 -909019780#0 668599376#1 668599376#2 668599376#2.6 -668599375#0 -909019783 -909019783.98 -971495601#3 -44740910#8 -671410531#2 -671410531#1 -671410531#1.53 -671410531#1.57 -671410531#1.63 671410530 -909019784#1 -909019784#1.47 -909019784#0 313316100#8 313316100#8.72 -971495601#0 -313316086 -44739144#26 -44739144#24 -44739144#22 -44739144#21 -951346849 909778546#1 909778547#2 -903953325#1 903953324#0 903953324#1 903953324#1.22 -44739144#18 671752228#0 -671960103#1 -951346850 -44739144#15 -44739144#13 -44739144#12 -44739144#11 -909778559#1 672815156#0 44740912#7 -904286388#7 -904286388#7.24 -904286388#6 -904286388#6.28 904371479#0 904371479#0.10 904371479#0.23 904371479#0.35 904371478#1 904371478#1.38 904371477 904371477.56 877396860#21 -952002225#1 -952002225#0 -877398366#20 -877398366#19 896786289#2 702673217#3 702673217#4 702673217#5 896786276 896786276.34 -896786277#0 877398366#16 877398366#17 877398366#17.93 -909024294#1 909024293#0 909024293#1 909024293#1.20 909024293#1.34 904286386#1 904286386#1.27 904286386#2 904371474#0 904371474#0.21 904371473#0 904371473#1 904371473#1.24 904371469 904286386#6 904286386#7 671191683#3 671191683#4 671191683#5 671191683#5.12 671191683#5.49 671191683#5.63 671191683#5.87 951973452#0 904286387#1 951973453#0 -951973454 951973452#2 951973452#3 -904371488#8 -904371488#8.6 -904371488#8.17 -904371488#7 -904371488#7.3 -904371488#7.6 -904371488#6 -904371488#5 -904371488#4 -904371488#2 -904371488#2.8 -904371488#2.11 -904371488#2.18 -904371468 -904371468.19 -904371468.25 -904371468.28 -904371468.32 -904371468.43 -904286385#13 -904286385#13.24 -904286385#12 951992355 904286381#6 896786290#1 896786290#1.24 896786290#2 -877396860#13 904286380#2 904286380#3 904286380#3.65 -877398366#14 -877398366#14.72 -877398366#13 671191680#15 671191680#15.58 671191680#16 671191680#16.17 671191680#16.20 671191680#16.22 671191680#16.24 671191680#16.31 -896786269#2 876614861#1 -909024289#6 -909024289#6.17 909024284 909024284.27 -896786269#0 896786283#1 896786283#1.25 896786283#1.45 -909024289#4 -896786286#4 -896786286#4.15 -896786286#4.66 -896786286#3 -896786286#2 -896786286#2.18 -896786286#1 -896786286#1.14 896786287#0 896786287#0.74 896786287#1 896786287#2 877396033#7 877396033#7.17 877396033#7.62 877396033#7.73 -909024289#0 -909024289#0.2 -909024289#0.5 -909024289#0.10 -896786293#0 896786291#0 896786291#0.19 -896786288#0 -896786288#0.20 -896786288#0.42 -877398520#0 -877398520#0.16 -904371459 -904371459.17 -904371459.33 -904371460#1 951995474 -877396860#7 -877396860#6 904371465#0 904371463#0 904371463#1 904371463#1.15 -671191680#11 -904286375#3 -904286375#2 -904286375#2.19 904286373#0 -951975997 -904371467#2 -904371467#2.49 -904371467#2.113 904371464 896786325#1 -896786328#1 -896786328#0 -896786328#0.177 -951951638#10 -951951638#10.18 -951951638#9 -951973426#1 951951639#4 -951973432#1 -951951638#7 951946800#0 951951639#7 -951973430#1 -951951638#4 -951951638#3 -951951638#2 -951951638#1 -952000397 -951951639#14 -951946794#0 951946792#1 896786337#8 896786337#8.8 -951887683 -951887684 -951887682#6 -951887682#5 -951887682#4 -951887682#3 951887692 -951887691#0 -951887682#0 -951887700#14 -951961240#3 -951961240#1 -951961245 951891772#0 -951891773 -951891771#0"/>
</vehicle>
<vehicle id = "veh7" type= "veh_passenger" depart="7210" >
<route edges =" 45342801#5 45342801#5.32 902433317#3 951421968#0 951421968#1 951421968#1.20 951421968#2 951421968#2.9 -45344271#34 -951368598#1 -951381446#0 951368595#1 951368595#1.17 951368595#1.34 902433317#8 902433317#8.29 902433317#9 951368594#0 951368594#1 -951369743#1 -951369743#1.33 -951369743#1.39 951421966 -951366780#1 -951366780#1.2 -951366780#1.41 -951366780#0 951369747#1 951366781#2 951366781#2.22 951366779#1 45342812#1 45342811#2 45342811#2.66 -45344273#22 -45344273#22.6 -45344273#22.18 -45344273#22.35 -45344273#21 -45344273#21.28 -45344273#19 -45344273#18 -45344273#18.17 45344321#0 45344321#1 897252876#7 897252876#8 897252876#9 45344324#0 45344329#3 902433295#3 45344330#0 45344330#1 -45344333#0 45344329#5 -951381435 45344331#3 45344331#4 45344320#4 -897172091#13 -897172091#12 -897172091#10 -897172091#9 -897172091#8 -897172091#6 -951404496 -951404496.25 -951404496.29 -951404496.31 -951404496.34 -951404496.36 897252883#1 45344297#0 45344297#0.22 -950400195#2 -950400195#2.10 -950400195#1 -950400195#1.7 -950400195#1.14 -950400195#1.22 -950400195#1.28 -950400195#1.34 -950400195#1.42 -950400195#1.48 -950400195#1.59 -950400195#1.74 -950400195#1.82 950400193#0 950400193#1 950400194#1 -950235689#1 -950235689#0 700254525#8 700254525#9 700254525#11 700254525#12 700254525#12.12 950235692#0 950235692#1 -950455053 950235703#2 950235703#2.6 950235703#3 950235694#4 950235694#4.8 950235694#4.19 950235694#4.29 950235694#4.38 950235694#4.48 950235694#4.103 950235694#4.115 950235694#4.119 950235694#4.123 950235694#4.127 950235694#6 950235694#6.13 950235694#6.18 950235694#6.21 950235694#6.25 -950455048#1 -950455048#1.49 -950455048#1.67 -950455048#1.78 -950455048#0 -950455048#0.5 -950455048#0.11 -950455048#0.15 -950235705#0 950238177#1 950238177#1.12 950238177#2 950238177#2.39 950238177#2.59 45344273#34 45344273#34.26 45344273#35 45344273#35.26 -950235692#4 -950235692#3 950235697#0 950732876 950235701 -950238179#1 -950238179#0 -950238178#3 -950238178#1 -950238180#5 -950238180#5.16 950238181#0 950238181#1 950238181#2 950238181#2.17 950238181#2.20 950238181#2.22 950238181#2.24 950238181#2.38 950238181#2.44 950238181#2.47 950238181#2.51 950238181#2.55 950238181#2.59 950238181#2.64 -950238182#2 -950238182#2.10 950780323 950780323.8 950780323.15 950780323.22 950780323.29 950238184#3 950238184#3.9 -950238180#1 -950238180#0 -45344278#4 -45344278#3 -950780326#2 -903341095#1 -903341095#0 -45344271#17 -950806855#5 950235722#0 950235722#0.39 950235722#0.44 950806859 950806859.14 950806859.25 950806852#0 950806852#0.16 950806852#0.21 950806852#0.26 950806852#0.31 950806852#0.35 -950806851 -950806851.20 -950806851.22 -950806851.24 -950806851.27 -950806851.30 -45344277#3 950806857 -950235725#2 -950235725#1 950235726#1 -45344277#0 45344276#3 902433292#0 902433292#0.18 902433292#1 902433292#1.12 902433292#2 902433292#3 -950235714#3 -950235714#2 951132942#0 950757963#0 950757963#1 45344271#25 45344271#26 45344271#26.18 950235711#0 -950757969#5 -950757969#4 950757967 951132942#6 -950757966#1 -950757966#0 -950757969#2 -950757969#2.4 -950757969#2.9 -950235712#3 -950235712#3.27 -950235712#3.30 -950235712#3.34 -950235712#3.37 -950757970 -876567894#51 -876567894#51.14 -876567894#51.27 -902822410#5 -902822410#5.39 -902822410#4 -951132942#8 -950235713#4 -950235713#4.13 -950235713#4.16 -950235713#4.19 -950235713#4.23 -950235713#3 950759350#1 950759350#2 950757958#2 -950759349#0 -950759349#0.28 -902433292#5 876614905#0 876614905#0.63 950235718#0 950235718#0.14 950235718#0.21 950235718#0.29 950235718#1 950235718#1.4 950235718#1.12 950235718#1.23 950759343 950759343.33 902822418 45344276#6 -950235727#7 -950235727#6 -950806854 -950806855#0 -950806855#0.17 -950806855#0.19 -950806855#0.21 -950806855#0.23 -950806855#0.25 -950235727#4 -950235727#3 -950235727#2 -950235727#2.16 -950235727#1 -950235727#1.45 -950235727#0 950641816#6 -950872165#4 -950641807#1 -950641807#1.20 -950641807#1.25 -950641807#1.30 -950641807#1.33 -950641807#1.38 -950641807#1.42 -950641807#1.47 950235729#2 950235729#3 -950235730#0 -950235730#0.38 -950235730#0.45 -950235730#0.52 -950641812#0 -45344285#2 -45344285#1 -950235732#4 -950235732#3 -950235732#2 950235733#1 950641812#3 950641812#4 -950641816#8 -950235729#0 -897252880#4 -950235725#7 -950806858 45344277#7 45344277#8 -950806850#1 -950806860#1 -950235723#0 -45344271#12 -45344271#11 897252880#7 897252880#7.68 897252880#8 897252880#8.48 897252880#9 -45344273#40 -950235700#3 -950235700#2 -950235700#1 950235694#0 950235695#3 -45344336#5 -45344336#4 -45344336#3 45344283#4 45344283#5 -950553582#2 -950553582#2.27 950553580#0 950553579 950553579.70 950553579.75 950553579.82 -950553581#0 -950553581#0.8 -950553581#0.15 -950553582#0 -950553582#0.6 -950233989#0 45344283#7 45344283#7.36 45344283#8 950233988#1 950233988#1.76 950233988#2 950233988#2.43 950233988#2.55 -700278833#3 700278832#0 700278832#0.21 -950392122 -950392122.10 -950392122.15 -950392122.21 -950392122.26 950392123#2 950392123#2.6 950392123#2.12 950392123#2.17 700278832#2 700278832#2.35 700278832#2.45 -950392119 -950392119.13 -950392119.17 -950392119.21 -950392119.29 -950392119.36 -950392119.48 -950392119.56 -950392119.64 950392121#0 950392121#0.13 950392121#0.18 950392121#0.24 950392121#0.35 950392121#0.44 950392121#0.54 950392121#1 950241222#3 950241223#1 950241223#1.14 950241223#1.30 950241223#1.47 -950392120#0 -950392120#0.3 -950392120#0.25 -950392120#0.41 -950392120#0.51 -950392120#0.60 -950392120#0.69 -950390889#0 -950390889#0.4 -950390889#0.19 -950390893#1 -950390893#1.23 -950390893#1.49 -950390893#1.53 -950390893#1.57 -950390893#1.63 -950241225#1 -950241225#0 -950241225#0.29 -950241225#0.59 45344280#11 45344280#11.11 45344280#11.23 45344281#0 -950238192#3 -950241233#1 950241229#0 950241229#1 950392116#1 -45344280#7 -45344280#6 -45344280#6.17 950241866#0 950241866#1 950241866#1.32 950241866#3 950241866#3.97 950241866#3.100 950241866#3.104 950241868#0 950394090#0 -950241869#0 -950241869#0.28 -950241869#0.37 950241866#5 950241866#6 950241866#6.19 950241866#6.38 950241866#7 950241866#7.10 950241866#8 950241866#9 -45344284#5 -45344284#4 -45344284#3 45344336#0 45344336#1 950553578#1 950553577#0 950553577#0.25 950553577#1 950553577#1.2 950553577#1.9 950553577#1.16 950553577#1.22 950553577#1.27 950553577#1.34 950553577#1.44 950553577#2 -45344282#1 -950641816#13 -950641816#13.116 -950238188#4 -950238188#3 -950238188#2 -950238188#0 45344284#8 45344284#9 45344284#10 45344284#11 950241823#4 -950929127#0 -45344271#4 950241818#0 950241818#1 950241818#1.41 950241818#2 950241818#3 950241825#1 950241825#1.27 -950241821#6 -950241821#6.63 -950241821#5 -950241821#4 -951014858#0 -951014858#0.81 950929127#5 950929127#6 950241834#3 950872160#6 950872160#7 950872160#8 950929122#3 -950929127#11 -950929127#10 -950241837#1 -950241837#1.71 -950241837#1.96 -950241837#1.99 -950241837#1.102 -950241837#1.105 -950241837#1.108 -950241837#0 -950241834#1 950241821#2 950241832#2 950241832#2.33 950241832#3 -951014858#3 -951014858#3.18 -951014858#3.23 -951014858#3.27 -951014858#3.30 -951014858#3.35 951014861#0 951014861#1 951014861#2 951014861#3 950241825#5 950241825#5.8 -950243393#5 -950243393#5.41 -950243393#4 -950243393#4.70 -950243393#4.113 971905923 -951014855#0 45344271#2 45344271#2.26 -950241848#5 -950241848#5.35 950241847#0 950241847#1 -902433322#1 -902433322#1.57 -902433322#0 -902433322#0.69 45344282#5 45344282#5.41 45344282#5.76 950241848#0 950241848#1 950241848#3 950241855#0 950241855#1 -950241851#1 -950241851#0 950241857#4 950241857#5 897252878#2 897252878#3 897252878#4 897252878#4.17 950241855#5 950241855#5.29 950241855#5.32 950241855#5.36 -950396018#1 -950396018#0 -950241208#0 -950241208#0.16 -950396020#1 -950396020#1.13 -950396021#0 -950396021#0.23 -950396021#0.28 -950396021#0.34 -950396021#0.39 -950396021#0.45 -950396021#0.50 -950396021#0.55 950396022#1 -950396023 -950243391#1 -950243391#1.3 -950243391#0 -950243391#0.66 -950243391#0.74 -950243391#0.79 -950243391#0.86 -950243391#0.116 -950241209#4 -950241209#4.34 -950241209#3 -950241209#3.19 -950243392#0 -897252877#1 -897252877#0 -897252877#0.24 -45344280#2 -45344280#2.7 -45344280#0 -45344280#0.24 -45344280#0.53 897252879#13 897252879#14 897252879#14.50 897252879#15 897252879#17 897252879#18 897252879#18.162 897252879#19 897252879#19.29 897252879#20 950318425#0 950318424#0 -951440585 -951440585.7 -951440585.12 -951440585.20 -951440585.29 -951440585.32 -951440585.35 -951440585.38 -951440585.40 -951440585.42 -951440585.45 -951440585.50 -951440585.53 -951440585.57 -951440585.61 897252879#22 897252879#23 896892972 896892973 896892973.27 896892973.31 -896786335#50 -896786335#49 -896786247#9 -896786247#9.8 -896786247#9.17 -896786247#9.75 -896786247#9.157 -896786247#8 -896786247#7 -896786247#7.2 -908869249#2 -908869249#2.8 -908869249#2.14 -908869249#2.28 -908869246 -908869247 -908869248#2 -908869248#1 -908869248#1.4 -908869248#1.6 -908869248#1.9 -908869248#1.11 -908869248#1.19 -951358827#2 -951358826 -951358826.10 -951358826.13 -951358826.16 -951358826.19 -951358826.36 -951358826.40 -951358826.44 -951358826.49 -896786335#42 -896786335#42.22 -896786335#41 908869237 908869237.8 908869237.20 908869237.48 -908869250#3 -908869250#2 -908869250#2.29 -908869250#2.76 -908869250#2.143 908869244#0 908869244#2 908869244#2.19 -896786247#1 -908869234#0 -908869234#0.11 -908869250#0 -908869250#0.11 -908869250#0.41 -45378649#10 -45378649#10.20 -45378649#9 -45378649#9.7 -45378649#7 -45378649#7.4 908869241#0 908869241#0.15 908869241#0.77 908869241#1 908869241#1.31 -908869252#1 -908869252#0 -908869252#0.17 -896786335#30 -896786335#29 -896786335#29.17 -896786335#28 -896786335#27 -896786335#27.19 951358823 951358823.10 951358823.15 951358823.20 951358823.26 -951354763#2 951358824#1 896786253 896786253.47 896786253.111 896786263#4 896786263#6 896786263#7 896786263#7.19 -896786249#0 -896786249#0.32 -896786249#0.71 -896786265#0 909024253#0 909024253#1 909024253#1.45 -896786293#7 -896786293#6 -896786293#5 -896786293#5.20 896786257#7 896786257#7.17 896786257#7.37 896786257#7.44 896786257#7.49 896786257#7.54 -45378665#1 909024239#0 909024239#1 909024239#1.17 909024239#2 909024239#2.40 -951983585 -951975994 896786325#3 -896786323#0 -896786323#0.137 -896786323#0.139 -896786323#0.141 -896786324#0 -896786324#0.19 -896786324#0.132 -896786324#0.177 951951639#0 951946803#0 951946795#1 951946795#2 951946795#3 951946795#4 951946795#6 -951946798#2 951951639#10 951951639#11 951946796#0 951946796#1 951946795#10 951946795#11 951946795#11.34 951946795#11.40 951946795#11.45 896786337#10 896786337#10.21 -951887700#20 671756019#0 671756019#1 671756018 -876509484#8 -876509484#8.19 951961251#0 951961247#0 951961248#0 951961248#1 -876509484#6 -876509484#6.3 -876509484#6.8 -876509484#6.12 -876509484#6.15 951878264#0 951878264#0.74 951878265#0 -951878266#5 -951878266#5.22 -951878266#5.29 -951878266#5.37 -951878266#4 -951878266#4.37 -951878266#2 -951878266#1 -951878266#1.39 -951878266#1.47"/>
</vehicle>
<vehicle id = "veh8" type= "veh_passenger" depart="7210" >
<route edges =" 951370989 951370989.40 951370989.47 951370989.53 951370989.56 951370989.62 951370989.64 951370989.67 -902433320#1 -902433320#0 902433321#2 45342799#21 45342809#0 951368600#0 951368600#1 -45342797#3 -45342797#2 -45342797#1 45342835#0 45342835#1 45342835#2 45342809#2 -45342834#2 -45342834#1 -45342834#0 44740902#8 -45342798#6 45342813#0 45342817#0 45342817#1 45342817#2 45342818#1 45342818#2 951370985#0 951370985#1 45342839#0 45342839#1 -45342840#2 -45342840#1 -45342840#1.23 -45342840#1.27 -45342840#1.31 -45342840#1.34 -45342840#1.38 45342810#3 45342810#4 45342810#4.21 45342810#5 -973399407#2 -973399407#1 951366784 44740885#15 44740885#15.31 -45342830#0 45342810#8 45342810#8.39 45342810#10 45342810#10.5 -44740885#12 -44740885#12.2 -44740885#12.5 -44740885#11 -44740885#11.4 -44740885#11.8 -45342826#1 -45342826#0 -45342825#0 -45342809#10 -45342809#10.53 -45342821#1 -45342821#1.44 -45342821#0 -45342803#3 45342820#0 45342820#1 -45342822#1 -45342822#0 -45342831#2 -951417482#2 -951417480#1 -951417480#0 -45342805#3 -45342805#2 951417479 -45342809#15 45342824#0 45342833#3 45342833#4 45342823#1 45342823#2 45342828#1 45342828#1.100 -951384596#1 -951384596#1.24 -951384596#1.31 -951384596#1.36 -951384596#1.46 -951384596#1.54 -951384596#1.60 -951384596#1.72 -951384596#1.107 -951417467 -951417467.14 -951417467.15 -951417467.17 -951417467.18 -951417467.21 -951417467.23 -951417467.24 -951417467.25 -951404491 -951404491.16 -951404491.28 -951404491.40 -951404491.51 -951384599#0 700249213#9 700249213#10 -951404492 700249212#3 45342808#9 45342808#10 45342808#11 45342808#11.24 45342808#12 -897252871 -897252870 -45344310#2 -45378639#12 -45378639#12.97 -951404475 -951404475.33 -951404475.43 -951404476 -951404476.16 -951404476.32 -951404476.50 -951404476.59 -951404476.68 -951404476.84 -951404476.93 -951404476.101 -951404476.106 -951404476.113 971495602#7 971495602#7.32 971495602#7.56 971495602#8 971495602#8.24 971495602#8.86 -313316104#6 -45378650#5 -45378650#5.11 -45378650#4 45378645#0 45378645#0.44 -908846596#3 -908846595#1 908846594#0 908846594#1 908846594#1.37 908846596#1 45378650#1 -908846593 -908846593.73 908560901#8 908560901#8.23 908560901#8.56 -313316104#0 -313316082 -45378649#12 896786296#0 896786296#1 896786296#1.36 -896786262#6 -896786262#6.15 -896786262#5 -896786262#4 -896786262#4.31 -896786262#3 -896786262#3.9 -896786262#1 -896786262#0 -896786262#0.33 -896786262#0.115 896786260#3 896786260#4 896786260#4.25 -909024254 -909024254.11 -909024254.37 896786266#3 896786266#4 896786266#5 -896786260#0 -896786260#0.52 896786257#4 909024248 909024248.50 -45378665#3 -45378665#3.29 -45378665#3.50 896786293#3 896786293#3.29 896786293#4 896786293#5 896786293#5.12 909024251 909024251.27 909024250#4 -909024245 -909024245.13 -909024245.37 -909024245.57 -896786335#16 -896786335#16.7 -896786335#15 -896786335#14 -896786335#14.27 -896786335#13 -951983587#9 -951983587#8 -951983587#7 -951983587#6 -951983620#1 951983619 951983619.46 951983619.50 951983619.52 951983619.56 -951983616#0 -951983616#0.12 -951983616#0.15 -951983616#0.18 -951983587#3 -951983587#3.2 -951983589#1 -951983589#1.108 -951983589#1.123 -951983589#1.137 896786304#8 896786304#8.15 -877398739#3 -951983590 896786311#10 896786311#11 896786311#11.62 -951976011#1 -951976011#0 896786321#2 951976012 951976012.68 951976012.72 951976012.75 951976012.78 -896786321#0 -896786321#0.44 -896786321#0.169 -896786311#7 -951930673#5 -951930673#4 -951930672#1 -951930672#0 -951930671#2 -951930671#2.8 951930676 951930676.46 951930676.49 951930676.51 951930676.55 -951930673#2 -951930673#2.6 -951930673#1 -951930673#0 -896786320#1 -896786320#0 -896786315#0 951976013#0 951930665#0 951930665#1 951930665#2 951930664#4 -877396172#0 -877396172#0.15 896786313#3 896786313#3.51 896786313#3.88 896786313#3.110 896786313#3.151 896786313#3.164 896786313#3.186 896786313#3.223 896786313#3.237 896786313#3.246 896786313#3.253 896786312#2 896786312#2.18 896786312#2.32 -951930662#0 -951930661#0 877395784#7 877395784#8 877395784#8.44 877395784#9 877395784#10 877395784#10.31 877395784#10.53 877395784#11 877395784#11.34 877395784#12 877395784#13 877395784#13.21 951946817#0 951946817#1 -951951640 951946833#2 951946833#3 951946833#4 951946833#5 -951951632#2 -951951632#2.4 -951951632#2.8 -951951632#2.12 -951951632#0 951946805#2 951946837#0 951946837#1 951946837#2 951946834#1 -951946833#7 951951631#0 951951631#1 951951635#2 951946818#2 -951946819#1 951946820#0 951946820#1 -951946816#6 -951946816#6.36 -951946816#6.40 -951946816#6.43 -951946816#6.46 -951946816#5 -951946816#5.8 -951946816#5.11 -951946816#5.14 -951946816#5.18 -951946816#4 951946844 877399011#1 951946810#2 -896786337#14 -896786337#14.40 -896786337#14.111 -952365020 -952365021 -951878231#2 -951878231#1 -951878231#1.26 -951878231#0 951951645 -951951643#3 -951951643#2 876509484#2 876509484#3 -951951650 -951951648#2 -951951648#1 951951649 951878263#7 951878263#8 951878230#4 -951891772#4 -951891772#3 -951891772#2 -951891774 951891771#2 951878270#2 951878270#3 951930614 -951878269#7 -951891764#4 -951891764#2 -951887654#3 951891765#2 951891765#3 951887660#5 -951887659#0 -904196454#2 -951878272#5 -951878272#4 -951878272#2 -951887654#1 -951887655#2 -951887655#1 -951887655#0 -904196454#0 700825962#5 700825962#5.39 951891762 -700825961#6 -700825961#6.9 -700825961#5 -700825961#5.7 -700825961#5.17 951887700#1 951887700#2 -951887702#0 951887666#2 951887664#1 904196454#5 904196454#6 -951887665 -951961236#0 -951887700#4 904196454#8 904196454#8.42 904196452#6 904196452#7 -951887672#4 -951887672#3 -951887669#2 -951887673#0 951887667#6 951887667#7 904196453#12 904196453#12.12 904196453#12.67 904196453#13 951887700#7 951887700#7.21 951887700#7.25 -877401978#3 -877401978#3.69 -951887664#3 951887663#1 951887663#2 -951887661#2 951887662 -951887660#2 -951887660#0 877401978#1 951878266#0"/>
</vehicle>
<vehicle id = "veh9" type= "veh_passenger" depart="10815" >
<route edges =" 951370989 951370989.40 951370989.47 951370989.53 951370989.56 951370989.62 951370989.64 951370989.67 -902433320#1 -902433320#0 902433321#2 45342799#21 45342809#0 951368600#0 -951368603#1 951368601#0 951368601#1 -45342797#2 -45342797#1 45342835#0 45342835#1 45342835#2 45342809#2 45342809#3 45342798#3 -45342837 -45342836#0 45342818#2 45342818#3 -45342814#4 -45342814#3 -45342814#2 -45342814#1 44740902#11 44740902#12 671399046#2 671399046#2.23 -671399054#1 671399053 -44740885#4 -44740885#3 -44740901#6 -44740901#5 -44740901#4 -44740901#3 -44740957#5 -671399051#1 -671399051#0 -44740942#1 -44740942#0 974189220#5 902433296 44740967#0 44740967#1 -951438763#1 -951438763#1.52 -951438762 -44740929#1 -44740929#0 44740930#12 951421954 951421954.184 44740929#10 955813295#1 955813295#1.169 955410233 955410234 102277232#1 44739167#9 44739167#10 -44740926#5 -44740925#1 44740989#0 44740923#1 -44740926#0 -44740922#5 -44740922#5.62 -44740927#17 44740923#3 -951438764 -951438764.47 -951438764.119 45378639#0 45378639#0.48 -45378689#5 -45378689#4 -45378690#1 -45378691 -45378682#0 -45378682#0.30 -313316091#8 -313316091#8.29 -44739167#15 -44739167#15.17 44740949#0 -44740951#1 -44740952 -44740953#6 951358801 44740927#11 44740927#12 -44740928#2 -44740928#1 -44740928#0 -44740928#0.75 -44740930#6 -44739163#14 102277232#3 102277232#4 102277232#4.80 102277232#4.133 102277232#4.154 102277232#5 -951438769 -44740930#1 -44740930#0 -44740930#0.64 896892969#13 896892969#13.22 896892969#13.80 896892969#13.126 896892969#14 896892969#14.13 951358796 44740937#1 44740937#1.16 44740937#2 44740937#2.6 44740937#2.10 44740937#2.13 44740937#2.18 951358795 44740927#2 -44740920#2 -44740935 -951358794#1 44740939#0 44740939#1 -44740920#0 44740930#4 44739156#14 44739156#15 44740985#0 44740987 44740927#8 -951358800#1 -951358800#0 -44740918#1 -44740918#0 44740920#6 -951358792 -951358792.26 -951358792.42 -951358792.53 -951358792.66 896892969#18 45340579#18 45340579#18.164 45340579#19 45340579#19.12 45340579#19.84 909019791#0 909019791#1 909019791#2 44740933#0 909019789#0 909019789#0.60 909019789#0.65 909019789#0.67 909019789#0.69 44740916#7 44740916#8 -668599377#1 -668599377#1.15 668599376#0 668599376#0.34 668599376#1 668599376#2 668599376#2.6 -668599375#0 44740916#11 -971495601#6 -971495601#5 -971495601#3 -971495601#1 -971495601#0 -313316086 -44739144#26 -903953334#9 -903953334#9.24 -903953334#9.50 -903953334#9.58 -903953334#8 -903953334#8.6 -903953334#8.17 -903953334#8.53 -903953325#4 -903953325#3 909778546#0 951346849 -44739144#20 -44739144#19 -44739144#19.14 -44739144#18 -44739144#16 951346850 -671960103#0 -671960104#0 -44739144#13 -877396860#22 -952002225#1 -909024265#2 -909024265#2.29 -909024265#1 909024263 909024263.62 909024264#1 -877398366#19 896786289#2 -702673217#2 -909024261 -909024261.82 909024262#1 909024262#1.26 896786294#12 896786294#12.25 896786294#12.31 896786294#12.37 896786294#12.41 896786294#12.47 44739144#22 909024272#0 909024272#0.29 909024273#0 909024273#0.33 909024273#1 909024273#2 909024273#3 -896786296#17 -896786296#17.6 -896786296#17.12 -896786296#17.79 -896786296#16 -951346848#1 -909024260 -909024260.37 -909024260.93 -909024260.137 -896786295#6 -896786295#6.9 -896786282#4 -896786282#4.21 -896786282#4.92 -896786282#3 -896786282#3.19 -896786282#3.45 896786273#0 896786280#0 896786280#0.19 896786280#0.47 896786280#1 896786280#2 909024257 909024257.36 909024257.92 -896786275#3 -896786275#2 -896786275#2.8 909024281 909024281.8 896786270#1 896786269#9 896786295#12 896786295#12.9 896786295#13 -896786294#5 -896786294#5.6 -896786294#5.10 -896786294#5.13 -896786294#5.16 -896786294#5.19 -896786294#5.22 -896786294#4 -909024256#1 -909024256#1.22 -909024256#1.80 -896786277#3 -896786277#2 -896786277#0 -896786290#5 -909024293#3 -909024293#2 904286386#1 904286386#1.27 904286386#2 904286383#0 -904286384#1 -904286384#1.25 -904286384#0 -904286385#13 -904286385#13.24 -951992356 -951992356.18 -951992356.27 -951992356.36 904371488#1 904371488#2 904371488#2.33 904371488#2.41 904371488#2.44 904371486#0 951992348 -904286385#8 -904286385#6 -904286385#5 -904286385#5.9 -904371490#4 951973470#0 -951973471#4 -904371456#2 -904371456#2.22 -904371456#1 -904371456#0 -904371456#0.17 -671191680#0 -671191680#0.38 -671191680#0.44 -671191680#0.48 -671191680#0.53 -671191680#0.58 -671191680#0.63 -671191680#0.76 -896786327#0 877395784#22 877395784#22.56 877395784#23 -952002224#7 -952002224#7.17 -952002224#7.71 -951973426#2 951951638#9 951973434#1 951951639#3 951951639#4 -951973432#1 -951951638#7 -951951638#5 -951951638#4 -951951638#3 -951951638#2 -951946794#1 -951946794#0 951946792#1 896786337#8 896786337#8.8 896786337#10 896786337#10.21 -951887700#20 -951887700#19 -951887700#18 -951887700#17 -951887700#17.17 -951887700#16 -951961233#4 951961244 951961244.37 951961244.40 951961244.43 951961244.47 -951961242#1 -951961242#0 -951961240#1 -951961245 951891772#0 -951891773 -951891771#0"/>
</vehicle>
<vehicle id = "veh10" type= "veh_passenger" depart="10815" >
<route edges =" 45342801#5 45342801#5.32 902433317#3 902433317#4 902433317#6 902433317#7 902433317#8 902433317#8.29 951368593#1 972507120#2 972507120#3 -951421966 -951369743#0 -951369743#0.6 951369744#2 951369744#2.22 951369744#2.31 -951369736 -951369736.21 -951369736.22 -951369736.24 -951369736.25 -951369736.26 -951369736.36 -951369736.39 -951369736.41 -951369746#2 -951369746#2.3 -951369746#2.36 -951369746#2.42 -951369746#2.45 -951369746#2.50 -951369746#1 -951369746#1.3 -951369746#1.9 -951369746#1.18 -951369746#1.26 -951369746#1.35 -951369746#0 -951369746#0.7 -951369748#0 -951369748#0.14 -951369748#0.17 -951369748#0.19 -951369748#0.22 951379886#1 951379886#1.14 951379886#2 951379886#2.14 951379886#2.19 951379886#2.22 951379886#2.25 951379886#2.28 -951369741#1 -951369741#1.20 -951369741#1.25 -951369741#1.30 45344273#27 45344273#27.17 45344273#28 -876567894#62 -876567894#62.5 -876567894#62.35 951381443 951381443.47 951381443.49 951381443.52 951381443.54 951381443.57 45344273#30 45344273#30.8 45344273#30.25 45344273#30.39 897252882#1 897252882#1.10 897252882#2 897252882#2.30 897252882#2.48 897252882#3 897252882#3.15 -950755152#2 -950755152#2.42 -950755152#2.59 -950755152#2.65 -950755152#0 -950755152#0.23 -950755152#0.35 45344271#24 45344271#25 45344271#26 45344271#26.18 950235711#0 -950757962#1 -950757962#0 -950757962#0.14 -950757962#0.18 -950757962#0.21 -950757964#1 -950757964#0 950235711#3 951132942#3 -950757968 -950757969#4 950757967 -950757960#1 -950757960#0 950757959#0 950757958#0 950757958#0.22 950757958#1 -950759350#2 -902433292#6 -902433292#5 -902433292#4 950235714#4 950235714#5 950235718#1 950235718#1.4 950235718#1.12 950235718#1.23 -950235719#1 -950235719#1.22 -950235719#1.35 -951990402 -951990402.22 -951990402.25 -951990402.27 -951990402.29 -951990402.30 950235717#3 950235717#3.7 950235717#3.9 950235717#3.12 950235717#3.15 902822419#7 902822419#8 902433292#1 902433292#1.12 -903373125#2 950235713#0 950235713#1 -950235714#2 -950235714#1 -950759347#1 -950759347#1.4 -950759347#1.8 -950759347#1.13 -950759347#1.29 -950759347#1.34 -950759347#1.39 -950759347#1.44 -950759347#1.51 -950759347#1.81 -950759347#1.85 -950759347#0 -950759347#0.3 897252886#0 897252886#0.21 897252886#0.44 897252886#1 897252886#1.30 897252886#1.51 897252886#2 897252886#2.18 897252886#2.33 897252886#4 897252886#4.10 897252886#4.25 897252886#4.39 45344273#32 45344273#32.22 45344273#32.44 45344273#33 45344273#34 45344273#34.26 45344273#35 45344273#35.26 -950235692#4 -950235699#3 950235701 -950238179#1 -950755158 -950755158.48 -950755158.54 -950755158.58 -950755158.63 -950238178#1 -950238180#5 -950238180#5.16 -950238180#4 -950238180#4.38 950238184#1 -950780324#0 -950780324#0.30 950238181#1 950238182#1 950238182#1.37 950238182#1.47 950238182#1.55 950238182#2 950238182#2.9 950238182#3 45344278#4 950238180#0 950238180#1 950238184#4 -950235722#2 -950235722#1 -950235722#1.25 -950235722#1.38 -950235722#1.43 -950235722#1.46 950806859 950806859.14 950806859.25 -45344277#4 -45344277#3 950806857 950235725#3 950235725#4 950235725#5 950235725#7 -897252880#3 -950235727#0 950641816#6 950641816#7 950641816#8 950641816#9 950641816#10 950641816#11 950641815#0 950641815#0.27 950641815#1 950641815#1.5 950641815#1.10 950641815#1.17 -950641813#0 -950641813#0.15 -950641813#0.21 -950641813#0.27 -950241847#5 -950241847#5.4 -950241847#5.12 -950241847#5.18 -950241847#5.23 -950241847#4 -950238186#0 950238188#2 950238188#3 950238188#4 950641816#13 950641816#13.45 -45344282#0 -45344272#0 -45344273#40 -950235700#3 950235699#0 950235695#0 -950235697#2 950732875#0 950732875#1 950235694#2 950235692#1 -950455053 950235703#2 950235703#2.6 -950455051#1 -950455051#1.51 950455050 950455050.9 950455050.11 950455050.13 950455050.15 950455050.26 950455050.29 950455050.31 950455050.34 950455050.49 950455050.55 950455050.63 951381436 951381436.26 951381436.34 951381436.39 951381436.45 -897252875#0 -897252875#0.4 -897252875#0.15 -897252875#0.35 -45344336#9 -45344336#9.10 -45344336#9.61 -45344336#9.126 -45344336#9.147 -45344336#8 -45344336#8.20 -45344336#8.27 -45344336#8.33 -45344336#7 -45344336#7.6 -45344336#6 -45344336#6.35 -950235695#3 -950235694#0 -950235700#0 -700254524#1 -700254524#0 -950400191 -950400191.5 -950400191.10 -950400191.16 -950400191.25 -950235691#0 -950235691#0.4 950235690#1 -45344335#3 -45344335#2 699875131#2 -950400194#2 -950235689#1 -950400192#0 950400193#1 -950400194#0 950400195#2 950400195#2.6 -45344297#0 -45344297#0.11 699875130#3 699875130#3.37 -897172091#0 -45344294#6 -45344294#6.9 -45344294#6.25 -45344294#5 -45344294#5.7 -45344294#4 -45344294#4.7 -45344294#4.18 -45344294#3 -45344295#2 -45344295#2.38 -45344295#2.87 45344305#0 45344305#1 45344304#9 -951370970#2 -951370971#1 -951370971#0 951370974#2 -45344304#7 -45344304#6 -45344304#6.5 -45344304#6.31 -45344304#6.62 -45344304#5 -897252858#3 -897252852#6 -897252852#6.26 -897252852#5 897252849 -897252850#2 -897252850#2.11 -897252850#2.29 -897252850#1 -897252850#1.5 -897252850#0 -897252852#1 -897252852#1.36 -897252852#0 45344272#9 45344272#9.28 45344272#10 45344272#10.38 -896892971#3 -896892971#2 -896892971#2.32 -896892971#2.61 -896892971#2.75 -896892971#1 -896892971#0 -896892971#0.14 -896892971#0.28 -896892971#0.54 -896892971#0.88 -45344286#8 -45344286#7 -702632122#4 -702632122#4.41 -702632122#4.57 -702632122#4.62 -702632122#4.67 -702632122#4.71 -702632122#4.73 -702632122#4.77 -702632123#3 -702632123#2 -702632123#1 -702632123#1.4 -702632123#0 45344272#13 45344272#13.4 45344272#13.35 45344298 896892974 971495602#11 971495602#12 971495602#12.26 971495602#12.77 951442813 951442812#0 -896786335#50 -896892981#13 -896892981#13.5 -896892981#13.13 -951349911#1 -951349910#1 -951349910#1.29 951354767 -896892981#10 -896892981#10.8 -896892981#9 -896892981#8 -896892981#8.18 -896892981#8.50 -896892981#8.78 -951358829#1 -951358829#1.27 -951358829#1.80 950260764#0 950260764#0.14 950260764#0.20 950260764#0.27 950260764#0.78 950260764#0.85 950260764#0.90 950260764#0.94 950260764#0.98 950260764#1 950260764#2 950260764#3 -950233986#2 -950233986#0 -896893025#15 -896893025#15.11 -896893025#14 -896893025#14.20 -950260765#10 -950260765#8 -950260765#7 -950260765#7.3 -950260765#6 -950260765#5 -950260765#5.30 -950260765#5.33 -952216032#1 -952216032#0 -952216032#0.13 952213575#9 952213575#9.39 952213575#9.47 952213575#9.52 952213575#9.55 952213575#9.60 952213575#10 876614662#0 951998783#1 951998783#2 -951998785#1 -951998790 -896893023#6 -896893023#6.20 -896893023#6.24 -896893023#6.27 -896893023#6.30 -896893023#5 -896893023#5.8 -896893023#4 -896893023#4.15 -896893023#3 -896893023#3.6 -896893023#3.28 -896893023#3.33 -896893023#2 -896893023#2.10 -896893023#2.21 -896893023#2.33 -896893023#1 896893021#13 896893021#13.24 896893021#13.85 896893019#2 896893019#2.13 896893019#2.34 896893019#3 896786297#11 -951998768#1 -951998768#1.13 -951998768#1.16 -951998768#1.19 -951998768#1.22 896893025#1 896893025#1.15 896893025#2 896893025#2.35 877388646#0 877388646#0.26 896892989#5 951998765#1 951998765#1.3 951998765#1.9 896893025#5 896893025#6 896893025#7 896893025#7.15 896893025#9 896893025#9.39 896892985#0 896892985#0.36 896892985#1 896892985#2 896892985#2.51 896892985#2.104 896892984#2 896892986#3 -896892983#8 -896892983#7 -896892983#6 -951349907#3 -951349907#2 -951349907#2.14 -951349907#2.28 -951349907#2.40 -951349907#2.47 -951349907#2.56 -951349909#2 -951349909#1 951998762#1 896893025#11 896893025#11.31 896893025#12 951349907#0 -951132945#2 951349908#1 951354778 951354778.30 951354778.38 951354778.43 951354778.48 951354778.53 951354778.60 -951350966#3 -951350966#2 -951350966#2.8 -951350966#2.10 -951350966#2.12 -951350966#2.14 -951350966#2.16 -951350966#2.19 -951350966#2.59 -951350966#2.61 -951350966#2.63 -951350966#2.64 -951350966#2.66 -951350966#2.78 -951350966#2.82 -951350966#2.87 -951350966#2.94 -951350965 950233986#5 950233986#5.1 950233986#5.5 950233986#6 951350967#0 951350967#0.40 951350967#1 951350967#1.12 951350967#2 896892981#3 896892981#4 896892981#5 951349912#0 951349912#0.14 951349912#0.18 951349912#0.25 951349912#0.33 951349912#0.69 951349912#0.72 951349912#0.74 951349912#0.76 951349912#1 951349912#1.12 951349912#1.14 951349912#1.16 951349912#1.19 -896786335#44 -896786335#44.9 -896786335#44.71 -896786335#43 -896786335#42 -896786335#42.22 -896786335#41 -896786335#40 -896892982#2 951421976 896892983#2 896892983#2.46 896892983#3 896892983#3.35 896892982#0 896892982#0.29 -951349921#5 -951349921#5.15 -951349921#5.17 -951349921#5.20 -951349921#5.23 -951349921#5.25 -951349921#5.32 -951349921#5.34 -951349921#5.37 -951349921#5.39 -951349921#5.42 951349920 951349920.8 951349920.12 951349920.15 951349920.20 951349920.60 951349920.65 951349920.69 951349920.73 951349920.77 -896786335#37 -896786335#36 -896786335#34 -896786335#33 -896786335#32 -896786335#32.17 -896786335#31 -896786335#31.22 -896786335#30 -896786335#29 -896786335#29.17 -896786335#28 951358824#0 951358824#0.11 951358824#0.16 951358824#0.21 951358824#0.29 951358824#0.41 951358824#0.47 951358824#0.52 951354763#2 951354763#3 951354763#4 951354763#5 -951995492#0 -951995491#0 896786266#13 896786266#13.14 -896786335#21 -896786335#21.41 -896786335#19 -951995495 -909024243#0 909024244#1 909024244#1.7 909024244#1.41 909024244#1.69 909024250#4 909024250#5 -909024246 -909024246.27 -909024246.63 -909024246.70 -909024246.79 -896786335#15 -896786300#3 -896786300#3.27 -896893012#1 -896893012#0 -896893012#0.11 -896786303#4 -896786303#4.22 896786301 896786301.58 896786303#6 896786303#6.29 896786302#1 896786304#6 896786304#7 896786304#7.11 -951983589#0 -951983588#0 951983586#1 -877398739#3 -877398739#2 -877398739#2.80 -951983587#1 -951983587#0 -951983587#0.39 -951983587#0.45 -951983587#0.51 -951983587#0.56 -896786311#8 -896786311#7 -951930673#5 -951930673#4 -951930672#1 -951983602 -896786311#4 -951930671#3 -951930671#3.23 -951930671#2 -951930671#2.8 -951930671#1 -951930671#0 -951930671#0.25 -951930671#0.32 -951930671#0.42 -877396172#3 -877396172#1 -877396172#1.57 -877396172#0 -877396172#0.15 -896786313#2 -896786313#2.55 896786314 -896786316#0 -896786319#5 -896786319#5.26 -896786319#4 896786318 896786318.40 -896786319#0 -896786319#0.11 -896786335#4 -896786335#4.18 -896786335#3 -896786335#3.10 -896786335#2 -896786335#1 -896786335#1.14 -896786335#0 -877395784#15 -877395784#14 -877395784#14.13 -877395784#13 -877395784#13.47 -951946824 -951946822 -951946821#1 951946823 951946816#10 951946817#1 -951951640 -951946833#1 951946816#12 951946816#13 951946816#13.22 951946816#13.26 -951946803#1 -951946803#1.55 -951946803#1.59 -951946803#1.61 -951946803#1.64 -951946803#0 951951639#1 951946802 951946795#2 951946795#3 951946795#4 951946795#6 951946795#7 951946795#9 951946795#10 951946795#11 951946795#11.34 951946795#11.40 951946795#11.45 -951887683 -951887684 -951887682#6 -951887682#5 951887686#0 -951887688#2 951887690 951887700#18 -671756019#4 -951961235 951961234#1 -951878265#2 951878263#1 951878263#1.39 951878263#1.46 951878263#1.53 951878263#1.72 951878263#1.75 951878263#2 951878263#2.2 -951878266#4 -951878266#4.37 -951878266#2 -951878266#1 -951878266#1.39 -951878266#1.47"/>
</vehicle>
<vehicle id = "veh11" type= "veh_passenger" depart="10815" >
<route edges =" -45342801#4 45342799#23 45342799#25 45342799#25.7 45342799#25.22 45342799#26 45342799#27 45342799#27.15 45342799#27.20 45342799#27.25 45342799#27.36 -951370987 -951370987.52 -951370987.54 -951370987.56 -951370987.57 -951370987.59 -951370987.62 -903341083#2 -903341083#1 -951368605#2 -951368605#1 -951368605#0 45342811#1 45342811#2 45342811#2.66 45344273#23 45344273#23.11 -951379890#1 -951379890#1.37 -951379890#1.47 -951379889 -951379889.17 -951379889.23 -951379889.29 -951379889.36 -951379889.42 -897252873#1 -897252873#1.42 -897252873#0 -897252873#0.25 897252876#4 45344320#2 45344320#3 -45344331#4 -45344331#3 -45344331#2 -45344333#2 -45344333#1 -45344333#0 -45344329#4 -902433295#2 -902433295#1 -902433295#0 -902433295#0.134 -45344273#14 -45344273#14.32 -45344273#13 -45344273#12 -45344273#11 -45344273#10 -45344273#10.42 -45344273#9 -45344273#8 -45344273#8.10 -45344273#7 -45344273#7.22 -45344273#6 -45344273#6.40 -45344273#6.59 -951384598#3 -951384597 -951384597.29 -951384597.36 -951384597.43 -45344273#3 -45344273#3.6 -45344273#3.14 -45344273#3.31 -45344273#3.48 -45344273#2 -45344273#2.6 -45344273#2.24 -45344273#1 -45344273#1.7 -45344273#0 -897252881 -45378637#10 -45378637#9 -951404484#10 -951404483#1 -951404474#1 951404473 -951404484#6 951404482 45378639#9 45378639#10 45378639#11 -951404475 -951404475.33 -951404475.43 -951404476 -951404476.16 -951404476.32 -951404476.50 -951404476.59 -951404476.68 -951404476.84 -951404476.93 -951404476.101 -951404476.106 -951404476.113 971495602#7 971495602#7.32 971495602#7.56 971495602#8 971495602#8.24 971495602#8.86 -313316104#6 -313316104#5 -313316104#5.12 -313316104#5.27 -313316104#5.46 -313316104#4 -313316104#4.4 -313316104#4.18 -313316104#4.31 -313316104#4.41 -313316104#4.56 -313316104#3 -951347804#2 -951347804#2.16 -951347804#2.19 -951347804#2.23 -951347804#2.26 -951347804#2.30 -951347804#2.33 -951347804#2.35 -951347804#0 -951347804#0.1 -951347804#0.6 -951347804#0.20 -951347804#0.28 -951347804#0.33 -951347804#0.39 45378651#1 45378651#2 45378651#2.13 45378651#3 908560887#0 908560887#0.10 908560887#1 951347805 951347805.34 951347805.35 951347805.37 951347805.38 951347805.40 951347805.42 951347805.44 951347805.45 951347805.47 951347805.48 951347805.50 951436329#1 -908560882#2 -908560882#2.31 -908560882#2.36 -908560882#2.42 -908560882#2.46 -908560882#2.49 -908560882#2.63 -908560882#1 951436655 951436655.55 908560868#1 908560868#1.11 908560868#1.28 908560881#1 908560881#1.17 951347806#0 951347806#0.30 951347806#0.32 951347806#0.34 -951436327 -951436327.3 -951436327.5 -951436327.7 -951436327.22 -951436327.25 -951436327.29 -951436327.34 -951436327.38 -951436327.40 -951436327.51 -951436327.55 -951436327.60 -908560886#1 -908560886#1.3 -908560886#1.6 -908560886#1.11 -908560886#1.25 -908560886#1.40 -908560886#0 -908560886#0.7 -908560888#2 -908560888#2.7 -908560888#2.15 -908560888#2.23 -908560888#2.29 -908560888#2.38 -908560888#2.44 -908560888#2.50 -908560881#4 -908560881#4.17 908560880 908560880.21 908560880.55 -45378643#5 -45378643#5.11 -45378643#4 -45378643#4.5 -45378643#4.18 -45378643#2 -45378643#0 -45378643#0.26 -45378651#11 -951436654#1 -951436654#1.25 -951436654#1.32 -951436654#1.38 -951436654#1.44 -951436654#1.56 -951436654#1.58 -951436654#1.60 -951436654#1.62 -951436654#1.67 -951436654#1.69 -951436654#1.70 -951436654#1.72 -951436654#1.76 -951436654#1.85 -951436654#1.94 -951436654#1.101 -951436654#1.111 -951436654#1.118 -951436654#1.126 -951436654#1.133 -951436654#0 -908560873#0 -908560873#0.16 908560874#2 908560874#2.45 908560874#2.55 908560874#2.79 908560874#2.88 908560874#2.96 908560874#2.115 -45378651#9 -45378651#9.1 -45378651#8 -45378651#8.10 -45378651#7 -45378651#7.24 -45378651#5 -45378651#5.26 -951347808#1 -951347808#0 908560884#1 908560884#1.8 908560884#2 -908560877#1 -908560877#1.33 -908560877#1.41 -908560877#0 -908560877#0.10 -908560877#0.27 -908560877#0.90 -908560877#0.115 -908560877#0.140 -908560901#15 -908560901#14 -908560901#14.9 -908560901#13 -908560901#13.39 -908560901#12 -908560901#10 -908560901#9 -908560901#9.4 -908560901#9.59 -313316104#0 -313316082 -45378649#12 896786296#0 896786296#1 896786296#1.36 896786296#2 896786296#2.35 896786296#3 -896786255#1 -896786255#1.19 -896786255#1.69 951355294#0 951355294#0.41 951355294#1 951355294#1.19 951355294#1.22 951355294#1.23 951355294#1.24 951355294#1.25 951355294#1.27 951355294#1.28 951355294#1.31 951355294#1.41 951355294#1.42 951355294#1.43 951355294#1.44 951355294#1.45 951355294#1.47 896786258#4 896786262#3 896786262#3.29 896786262#4 896786262#4.32 -951354759#4 -951354759#4.12 -951354759#3 951355298#0 951355298#0.23 -951355297#1 -951355296 -951354759#0 -951354759#0.4 -951354759#0.15 -951354759#0.20 -951354759#0.24 908869241#0 908869241#0.15 908869241#0.77 -908869239 -908869239.8 -908869239.11 -908869239.13 -908869239.15 -908869239.18 -45378649#3 -45378649#3.8 -45378649#2 -45378649#2.8 951354763#0 951354763#1 951358824#1 -896786265#5 -951358820 -951358820.17 -951358820.20 -951358820.22 -951358820.25 -951358820.28 -951358820.45 -951358820.48 -951358820.50 -951358820.53 -951358821#1 -951358822#1 -951358822#1.32 -951358822#1.34 -951358822#1.36 -951358822#1.37 -951358822#1.39 -951358822#1.41 -951358822#1.61 -951358822#1.65 -951358822#1.67 -951358822#1.69 -951358822#1.71 -951358822#1.74 -951358822#1.88 -951358822#0 -951358822#0.4 -951358822#0.8 -951358822#0.13 -896786265#2 -896786265#0 909024253#0 909024253#1 909024253#1.45 -896786293#7 -896786293#6 -896786293#5 -896786293#5.20 896786257#7 896786257#7.17 896786257#7.37 896786257#7.44 896786257#7.49 896786257#7.54 -45378665#1 909024239#0 909024239#1 909024239#1.17 909024239#2 909024239#2.40 877398366#3 -951995475#3 -951995475#2 896786292#0 896786292#0.10 896786292#2 896786292#2.23 896786292#2.61 896786292#3 896786292#4 896786292#4.57 896786286#3 -877396033#4 -877396033#4.15 896786283#0 896786283#0.10 896786269#0 -909024284 -909024284.22 -909024289#5 896786283#2 -909024287#2 951995477 951995477.33 951995477.41 45378665#7 45378665#7.25 45378665#7.48 45378665#8 -896786283#4 -896786283#4.15 -896786283#4.56 951433465 -876614861#3 -876614861#3.25 -876614861#2 -876614861#1 -876614861#0 -876614861#0.36 -877396033#0 -671191680#15 -671191680#15.78 -671191680#14 877396860#11 -904286382#1 -904286382#0 -904286374 -904286375#2 -904286375#2.19 904286373#0 -951975997 -904371467#2 -904371467#2.49 -904371467#2.113 -904371465#2 -904371465#1 -904371465#0 -877396860#4 -877396860#3 -951975994 -896786324#1 -896786324#0 -896786324#0.19 -896786324#0.132 -896786324#0.177 -877395784#19 -951946816#15 -951946816#14 -951946816#13 -951946816#13.3 -951946816#13.8 -951946816#12 -951946816#11 -951946816#10 -951946823 951946821#1 951946821#2 -951946820#0 951946819#1 -951946818#2 -951946818#0 951946833#9 951946833#9.22 951946833#11 951946833#11.92 951946833#11.95 951946833#11.98 951946833#11.101 -951946806#0 -952365020 -952365021 -951878231#2 -951878231#1 -951878231#1.26 -951878231#0 951951645 -951951643#3 -951951643#2 -951951643#1 951951648#0 951951648#1 -951951642#0 -951878263#5 -951878269#15 -951878269#14 -951878269#13 -951878269#12 -951891766#3 -951891766#2 -951891766#2.2 -951891766#2.6 -951891766#2.10 -951891766#2.15 -951891766#0 -950288028#0 -951878269#4 -951878269#2 -951878269#1 -951878269#1.25 -951878269#1.51 -951878269#1.75 -951878269#1.92 -951887655#4 951887656#0 951878272#1 951887654#2 951891765#2 951891763#1 -951887659#1 -951887659#0 904196454#4 951887664#2 951887663#1 951887663#2 951887661#3 951878266#0"/>
</vehicle>
<vehicle id = "veh12" type= "veh_passenger" depart="14420" >
<route edges =" 951370989 951370989.40 951370989.47 951370989.53 951370989.56 951370989.62 951370989.64 951370989.67 -902433320#1 -902433320#0 902433321#2 -45342799#20 -45342797#4 -951368600#1 -951368603#1 951368601#0 -951368602#1 951370983 -45342797#1 -45342797#0 -45342834#1 -45342834#0 44740902#8 -45342798#6 45342813#0 45342813#1 -951370984#1 -951370984#0 45342803#7 45342817#2 45342818#1 45342818#2 45342818#3 45342814#5 45342809#8 45342809#9 -45342821#1 -45342821#1.44 -45342822#2 -45342820#1 -45342820#0 -45342803#2 -45342802#2 -45342802#1 671399046#2 671399046#2.23 671399046#3 671399046#3.56 -44740885#5 -44740885#5.33 -671399053 -671399054#0 -671399058#0 -44740885#3 -44740901#6 -44740901#5 44740896#0 44740896#1 -951417474 44740957#8 -974189220#2 44740896#3 -44740959#1 -44740959#0 -44740895#2 -44740895#2.69 44740972#0 951417475#0 951417475#1 -671399049#1 -671399049#0 -671399051#0 -44740942#1 -44740901#0 -313316089 -951438761 44740929#6 44740929#7 -951439009 -44740962#1 -44740963 44740930#15 44740930#16 44740967#3 44740929#1 44740929#2 44740929#3 -951438759 44740922#2 44740922#2.25 44740922#3 -44740927#17 -44740927#16 -44740927#15 -44740925#3 -44740925#2 44740926#5 44740926#6 44740926#7 -951358806#1 951358805#0 951358805#1 44740928#2 44740927#13 44739167#12 -44740953#3 44740940#0 44740940#1 44740940#2 -313316091#12 45378690#0 45378690#0.38 45378690#1 -45378689#2 45378688#0 45378655#0 45378655#1 45378655#2 -45378684#1 -45378684#0 -45378684#0.58 -45378684#0.107 -313316091#5 -313316091#5.44 -313316091#4 -313316091#4.67 -44739163#20 -44740919#1 -44740919#0 -951358792 -951358792.26 -951358792.42 -951358792.53 -951358792.66 896892969#18 -971495601#9 -971495601#9.28 44740934#0 -668599375#2 -668599375#2.17 -668599375#1 -668599375#1.9 -668599375#0 -909019783 -909019783.98 -971495601#3 -44740910#8 -44740910#7 909019782 909019781#1 44740932#4 44740932#5 44740932#6 44740932#7 313316100#7 313316100#8 313316100#8.72 -971495601#0 -313316086 -44739144#26 -44739144#24 909024272#0 909024272#0.29 909024273#0 909024273#0.33 909024273#1 -909024277#3 -909024277#2 -909024277#2.4 -909024277#2.29 -909024277#1 -909024277#1.20 -909024277#0 -909024279#3 -909024279#2 -909024279#2.12 -909024276#2 951346848#0 951346848#0.15 951346848#0.24 951346848#0.33 951346848#0.42 -909024260 -909024260.37 -909024260.93 -909024260.137 -896786280#3 -896786280#2 -896786275#5 -896786275#4 -896786275#3 -896786271#0 896786272#1 -896786281#2 -896786281#1 -896786280#0 -896786280#0.15 -896786280#0.43 896786273#1 896786273#2 896786273#2.36 896786273#3 896786273#3.22 896786279#2 896786279#2.21 896786269#5 896786268#0 896786268#1 896786268#2 896786268#2.6 896786268#3 896786295#13 -896786294#5 -896786294#5.6 -896786294#5.10 -896786294#5.13 -896786294#5.16 -896786294#5.19 -896786294#5.22 -896786294#4 -896786294#3 -896786294#3.26 -896786294#2 -896786294#2.7 896786276 896786276.34 -896786277#0 877398366#16 904286386#0 904286386#1 904286386#1.27 904286386#2 904371474#0 904371474#0.21 904371474#1 904371474#2 -904371480 -904371480.19 -904371480.46 -904371480.53 -904371480.60 -904371480.68 -904371480.92 904286388#4 904286388#4.32 -904286389#4 -904286389#4.12 951992350#1 951992350#2 951992350#2.32 951992350#2.34 951992350#2.37 951992350#2.40 -904371481#0 -904371481#0.3 -904371482#0 -904371482#0.24 -904371482#0.73 671191683#6 671191683#7 904286387#0 904286387#0.24 951973452#1 951973452#2 -951973451#3 -951973451#1 -951973451#0 671191683#1 671191683#1.7 671191683#1.21 671191683#3 671191683#4 -904371473#4 904286388#1 904286388#1.16 904371472#0 904371471 -904371473#1 -904371473#1.10 904371470#0 904371470#1 904286384#1 904286384#1.16 904286384#2 904286384#2.14 -877396860#14 -877396860#14.23 -896786290#2 904286383#2 -904286380#0 -951992355 904286375#0 -904286372#0 904286373#4 -904371487#1 -904371487#1.16 -904371489#2 951973468#0 -904286385#5 -904286385#5.9 904371489#0 671191682#0 671191682#1 671191682#2 904371493#3 -671191681#2 -671191681#1 -671191681#0 904286385#1 904286385#2 904371491 904371492#3 951973476#0 951973476#1 951973471#3 -904371456#2 -904371456#2.22 -904371456#1 -904371456#0 -904371456#0.17 -671191680#0 -671191680#0.38 -671191680#0.44 -671191680#0.48 -671191680#0.53 -671191680#0.58 -671191680#0.63 -671191680#0.76 -896786327#0 -877395784#21 -877395784#21.14 -951951638#10 -951951638#10.18 951973434#1 951951639#3 951951639#4 -951973432#1 -951973432#0 -952002224#5 -952002224#5.5 -952002224#4 -952002224#4.27 -952002224#3 -952002224#3.30 -952002224#3.48 -952002224#3.80 -952002224#2 -952002224#2.36 -952002224#1 896786337#4 951951638#0 951951638#1 -951946794#1 951951639#14 951951639#15 896786337#6 896786337#7 896786337#8 896786337#8.8 896786337#10 896786337#10.21 -951887700#20 -951887700#19 -951887700#18 -951887700#17 -951887700#17.17 -951887700#16 -951887700#15 -951887700#14 -951887679#2 951887680 -951887678#1 -951887678#0 951887674#3 951887674#3.83 951887674#3.90 951887674#3.96 951887674#3.101 951887674#3.111 951887674#3.114 951887674#3.118 951887700#8 951887700#8.5 951887700#8.7 951887700#8.11 951887700#10 951887700#11 951961240#0 951961240#0.54 951961240#0.57 951961240#0.59 951961240#0.62 -951961245 951891772#0 -951891773 -951891771#0"/>
</vehicle>
<vehicle id = "veh13" type= "veh_passenger" depart="14420" >
[...]
</vehicle>
<vehicle id = "veh18" type= "veh_passenger" depart="21630" >
<route edges =" 951370989 951370989.40 951370989.47 951370989.53 951370989.56 951370989.62 951370989.64 951370989.67 -902433320#1 -902433320#0 902433321#2 45342799#21 45342809#0 45342809#1 45342809#2 45342809#3 45342798#3 45342798#4 45342798#5 45342813#0 45342817#0 45342817#1 -45342803#7 -45342803#6 -45342803#5 -45342803#4 -45342803#3 45342820#0 -45342804#3 -45342804#2 45342831#0 -951417482#2 -951417480#1 -951417480#0 45342805#4 -45342809#12 -45342809#11 -45342809#10 -45342809#10.53 -45342809#9 -45342809#8 -45342809#7 45342839#0 -45342838#2 -45342838#1 -671416443#2 -671416443#1 671416441 -671416442#0 671416444#1 671416444#2 45342810#2 45342810#3 45342810#4 45342810#4.21 45342810#5 45342810#6 45342810#6.38 45342810#7 45342810#7.73 45342830#0 -44740885#15 -44740885#15.10 -951366785 45342810#10 45342810#10.5 -44740885#12 -44740885#12.2 -44740885#12.5 45342829 45342827#1 -45342826#0 45342825#1 45342825#2 45342828#0 -45342823#2 -45342824#3 -45342824#2 -45342824#1 -45342824#0 45342809#15 45342809#16 -897252872 -897252872.99 -45342808#2 -45342808#1 -45342808#1.101 -45342844 45342843#1 45342843#2 45342803#0 44740957#0 44740957#1 44740957#2 44740902#14 44740902#14.81 44740902#14.94 -874839172#0 -44740943 -313316091#20 951438760#0 -672215964 -672215965#0 -672215965#0.46 -951438759 -44740922#1 -44740922#0 -313316091#16 -313316091#14 -313316091#14.20 -671761561 45378689#5 45378639#1 45378639#1.38 45378658#0 45378658#1 45378641#0 45378641#1 45378641#1.76 -45378640#3 -45378640#2 45378658#3 -45378683#3 -45378683#2 -45378683#1 45378689#0 -45378682#1 -45378682#0 -45378682#0.30 313316091#10 313316091#10.40 951438765 44740948#1 -44740940#1 44740945#0 44740945#1 44739167#14 44740949#0 44740949#1 44740949#2 -44739163#19 -44739163#18 -44740927#9 -951358800#1 -951358800#0 -44740918#1 -44740918#0 44740920#6 44740920#8 -313316091#0 -313316091#0.27 -313316091#0.72 -313316091#0.80 -971495601#9 -971495601#9.28 -971495601#8 -971495601#7 -971495601#6 -971495601#5 -971495601#3 -951346855#1 -951346855#1.22 -951346855#1.42 -951346855#1.57 -951346854 -951346854.30 -951346854.33 -951346854.34 -951346854.36 -951346854.39 -951346854.40 -951346854.42 -951346854.50 -951346854.52 -951346854.54 -951346854.56 -951346854.59 -951346854.61 -951346854.62 -951346854.64 -951346854.65 -951346854.67 -951346854.69 -951346854.101 908560901#22 908560901#22.77 908560901#22.89 -971495601#0 -313316086 -44739144#26 -903953334#9 -903953334#9.24 -903953334#9.50 -903953334#9.58 -903953327 -903953327.7 -903953327.18 -903953327.71 903953326#1 -903953325#3 909778546#0 909778546#1 909778547#2 -903953325#1 903953324#0 903953324#1 903953324#1.22 702673217#0 702673217#1 702673217#2 896786289#3 -909024270 -909024270.74 -909024270.101 -909024277#0 909024279#4 909024279#4.20 -909024280#1 -909024280#1.18 909024278#1 909024278#1.42 -896786294#6 -896786294#5 -896786294#5.6 -896786294#5.10 -896786294#5.13 -896786294#5.16 -896786294#5.19 -896786294#5.22 -896786294#4 -896786294#3 -896786294#3.26 -896786294#2 -896786294#2.7 -896786294#0 -896786294#0.13 877398366#17 877398366#17.93 -909024294#1 909024293#0 -909024290 -909024290.32 877396860#17 877396860#17.31 877396860#18 877396860#18.31 -904371479#3 -904371474#3 -904371474#2 -904371472#1 -904371472#1.50 904371471 904371469 -904286386#4 -904286386#4.23 904371470#1 904371470#2 -896786290#0 -904286385#12 951992355 904286380#0 904286380#1 904286380#1.17 904286380#1.44 -877396860#12 -904286382#1 -904286383#4 -904286379 904286381#3 904286381#3.4 904286381#3.18 -904286372#1 -904286372#0 -904286373#3 -904286373#3.24 -904286373#3.27 904286371 -671191680#6 -671191680#5 904371490#0 -951973468#2 -951973468#2.26 -951973468#2.29 -951973468#2.31 -951973468#2.34 -951973469 904371490#2 904371490#4 -904286385#4 -951973457 -904371492#4 951973476#0 951973476#1 -951973471#2 -951973471#2.11 -951973471#2.14 -951973471#2.17 -951973471#2.20 -904371456#1 -904371456#0 -904371456#0.17 -671191680#0 -671191680#0.38 -671191680#0.44 -671191680#0.48 -671191680#0.53 -671191680#0.58 -671191680#0.63 -671191680#0.76 -896786327#0 -877395784#21 -877395784#21.14 -951951638#10 -951951638#10.18 951973434#1 951951639#3 951973426#1 -951951638#8 -951951638#7 -951951638#5 -951951638#4 -951951638#3 952000398 951951639#13 -951946794#0 951946792#1 896786337#8 896786337#8.8 896786337#10 896786337#10.21 -951887700#20 -951887695#5 -951887682#5 -951887682#4 951887687#0 951887687#0.26 951887688#0 951887689 -951887700#16 -951887700#15 -951961243 -951961242#0 -951961240#1 -951961245 951891772#0 -951891773 -951891771#0"/>
</vehicle>
<vehicle id = "veh19" type= "veh_passenger" depart="21630" >
<route edges =" 45342801#5 45342801#5.32 902433317#3 951421968#0 951421968#1 951421968#1.20 -951381446#1 -951368598#0 902433317#6 902433317#7 902433317#8 902433317#8.29 951368593#1 972507120#2 45342812#0 -951366779#1 -951366779#0 951366780#1 951366780#1.16 951366780#1.54 -951369746#4 -951369746#4.24 -951369746#4.27 -951369746#4.29 951369745#0 951369745#1 951369745#1.13 951369745#1.18 951369745#2 951369745#2.2 951369745#2.14 951369745#2.20 951369745#2.26 -951369742 -951369742.3 -951369742.6 -951369742.30 -951369742.33 -951369742.36 -951369742.38 -876567894#57 -876567894#57.2 -876567894#57.5 -876567894#57.13 -876567894#57.25 -876567894#56 -876567894#56.13 -876567894#56.24 -876567894#55 -876567894#55.10 -876567894#55.28 -876567894#55.80 -876567894#55.100 -876567894#55.109 -876567894#54 -876567894#54.6 -876567894#54.20 -951381438 -951381438.18 -951381438.24 -951381438.29 -951381438.35 -951381438.41 -951381438.47 -951381438.53 -45344271#28 -45344271#28.43 -45344271#27 950235711#0 -950757962#1 950757961 950757964#1 950757964#2 -950757963#0 951132942#1 951132942#2 951132942#3 951132942#4 951132942#6 -950757966#1 -950757965 -950235712#1 -950235712#1.23 -950235712#1.27 -951132942#8 -950235713#4 -950235713#4.13 -950235713#4.16 -950235713#4.19 -950235713#4.23 -950235713#3 -950235713#2 -950235713#2.26 950235714#3 -902433292#3 -950235719#4 950780327 950235714#5 -950235718#0 -950235718#0.4 -950235718#0.11 -950235718#0.19 876614905#1 950235717#0 950235717#0.7 950235717#0.15 -950759342 -950759342.21 -950759342.36 -950759342.46 902822419#5 902822419#5.3 902822419#5.36 902822419#6 902822419#6.3 902822419#6.41 902822419#7 902822419#8 -902433292#0 -902433292#0.16 45344276#4 950235725#0 950235725#1 950806855#2 950806855#2.19 950806855#2.25 950806855#2.29 950806855#2.35 950806855#2.39 950806855#2.44 -45344277#1 -45344277#0 -45344276#2 903373125#0 950759345 950759345.20 950759345.25 950759345.28 950759345.33 950759345.37 950759345.41 950759345.45 -903373124#0 950235713#0 950759344 950759344.25 950759344.36 950759344.47 -950235714#0 -950235714#0.32 -45344271#22 -45344271#22.29 950755153 950755153.14 950755153.22 950755153.29 950755153.35 950755153.53 950235707#1 897252886#1 897252886#1.30 897252886#1.51 950239855 897252882#5 -950235708#2 -950235710#1 -950235710#1.25 -950235710#1.33 -950235710#1.40 -950235710#1.48 -950235710#1.67 -950235710#1.81 951381442 951381442.21 951381442.27 876567894#59 876567894#60 876567894#60.19 -951369737#3 -951369737#3.16 -951369737#3.20 -951369737#3.24 -951369737#3.29 -951369737#3.34 -951369737#3.39 -951369737#3.42 -951369737#3.56 -951369737#3.63 -951369737#3.67 -951369737#3.71 -951369737#2 -951369737#2.6 -951369737#2.17 -951369737#2.25 -951369737#2.35 -951369737#2.43 -951369737#2.48 -951369738 -951369738.5 -951369738.18 -951369738.24 -951369738.31 -951369741#2 -951369741#2.8 -951369741#2.11 -951369741#2.13 -951369741#2.16 -951369741#2.19 -951369741#2.22 -951369741#1 -951369741#1.20 -951369741#1.25 -951369741#1.30 -45344273#26 897252876#0 897252876#0.16 897252876#0.57 897252876#1 897252876#1.54 -45344336#9 -45344336#9.10 -45344336#9.61 -45344336#9.126 -45344336#9.147 -950455054 -45344320#5 -45344320#5.17 -897172091#13 -897172091#12 903341090 -45344335#4 -45344335#3 -45344335#2 -699875131#1 699875130#0 699875130#0.20 699875130#1 -897252883#1 -897252883#0 -897252883#0.7 -897172091#1 -897172091#0 -45344294#6 -45344294#6.9 -45344294#6.25 -45344294#5 -45344294#5.7 -951370959 -951370959.20 -951370959.22 -951370959.23 -951370959.27 -951370959.28 -951370959.29 -951370959.30 -951370959.31 -897252850#4 -951381432#1 -951381432#1.22 -951381432#1.25 -951381432#1.27 951441775 951441775.22 951441775.36 951441775.44 951441775.54 951441775.68 950389247#1 950389247#1.24 -950389246 -950389246.5 -950389246.12 -950389246.18 -950389249#2 -950389249#2.2 -950389245 -950389245.21 -950389245.31 -950389245.37 -950389245.42 45344272#7 45344272#7.21 45344272#7.41 950389249#0 950389249#0.37 950389249#0.40 950389248 950389248.21 950389248.25 950389248.29 950389248.34 950389248.56 950389248.59 950389248.62 950389248.66 950389249#4 950389249#4.2 950389249#4.6 -897252850#0 897252852#3 897252852#5 951370961#0 -951370960 897252858#1 897252858#2 897252858#3 -45344286#12 -45344286#11 -45344286#9 -45344286#9.15 -45344286#9.41 -45344286#9.67 -45344286#8 -951384608#1 -951384608#1.59 -951384608#1.63 -951384608#1.67 -951384608#1.69 -951384608#1.73 -951384608#0 -951384608#0.43 -951384608#0.47 -951384608#0.50 -951384608#0.52 -702632123#1 -702632123#1.4 -951404495 -951384610#0 45344272#12 45344272#13 45344272#13.4 45344272#13.35 45344298 896892974 971495602#11 971495602#12 971495602#12.26 971495602#12.77 951442813 951442812#0 -896786335#50 -896786335#49 -896786335#48 -896786335#48.15 -896786335#47 -896786335#46 951358828 951358828.11 951358828.13 951358828.16 951358828.19 951358828.22 951358828.26 951358828.29 951358828.32 951358828.42 951358828.46 951358828.50 951358828.53 951358828.57 -896786247#8 -908869236 -908869236.10 -908869236.25 -908869236.28 -908869236.31 -908869236.34 -908869236.36 -908869236.38 -908869236.41 -908869236.82 -908869236.85 -908869236.89 -908869236.92 -908869236.95 -908869236.97 -908869236.100 -896786335#43 -896786335#42 -896786335#42.22 896892977#0 896892977#0.14 896892977#1 896892977#1.45 896892977#1.56 -908869250#4 -908869250#4.38 -908869250#3 -908869238 -908869238.92 -896786335#39 -896786335#39.27 -896786335#37 -896786335#36 -896786335#34 -908869252#3 -908869252#3.7 -908869252#3.13 -908869252#3.35 -908869252#3.57 -908869252#3.88 -908869252#3.90 -908869252#3.94 -951355291 -951355291.22 -951355291.26 -951355291.31 -951355291.36 -951355291.41 -951355291.50 -951355291.55 -951355291.62 -896786335#31 -896786335#31.22 -896786335#30 -896893028#5 -896893028#4 -896893028#4.22 -896893028#3 -896893028#3.26 896893016#0 896893017#0 -896893018#1 -896893018#1.27 -896893018#0 877388728#14 -896786335#24 -896893004#5 896893002 896893002.42 -896786335#22 -896893013#7 -896893013#7.29 -896893013#7.87 -896893013#6 -896893013#6.15 896893003 951995485 -896893005#0 -896893005#0.12 -896893005#0.57 -896893005#0.74 -896786308#6 -896786308#6.17 -896893001 -896893001.19 -896893001.74 -896786307#7 -896786307#7.13 -896786307#6 -896786307#6.13 -896786307#6.32 877388976#0 877388976#0.43 877388976#0.77 -896786308#2 -896786308#2.11 -896786305#0 -896786305#0.72 -896786305#0.81 -896786309#0 896786304#2 896786300#0 896786300#0.23 896893013#0 896893013#0.10 896893013#0.59 896893013#1 896893013#1.26 896893010 896893010.28 896893010.97 -896893012#5 -896893012#5.11 -896893012#4 -896893012#3 -896893012#2 -896893012#2.9 -896893012#1 -896893012#0 -896893012#0.11 896786303#5 896786303#5.27 896786303#5.100 896786303#5.124 896786303#6 896786303#6.29 896786302#1 951983592#0 951983592#0.146 951983592#0.152 951983592#0.157 951983592#1 951983592#3 951983592#3.4 951983592#3.8 951983592#3.24 951983592#3.30 -951988579 951988578#1 -951988576#1 -951988574#0 896786310#6 896786310#6.17 896786310#7 896786310#7.4 896786310#7.13 896786310#7.40 896786310#7.52 896786310#7.60 896786310#7.68 896786310#7.74 -951983612 -951983612.4 -951983612.8 -951983612.13 -951983611#1 -951983611#0 -951988595#2 951988596#0 951988597#0 -951988599 -951988598#0 -951988598#0.25 -951988598#0.29 -951988598#0.33 -951988598#0.37 -951988595#0 -951988595#0.6 -951988600#1 -951988600#0 -951988600#0.43 -951988600#0.49 -951988600#0.52 -951988600#0.57 -951988602#0 -951988602#0.11 -951988602#0.36 951935274#5 951935274#5.4 951935274#5.13 951935274#5.22 951935274#5.58 951935274#5.68 951935274#5.76 -951988607#2 951988606#0 951988604#2 951988604#2.18 951988604#2.21 951988604#2.24 951988604#3 951988604#4 -896786309#20 -896786309#18 -896786309#17 -951930620 -951930617#5 -951930617#4 951930618#0 951930618#0.26 951930618#0.29 951930618#0.32 951930618#0.35 -951930619 -877389028#0 -877389028#0.33 896786310#9 896786310#9.40 896786310#9.54 896786310#9.61 -951983616#2 951983617#0 951983617#0.43 877398739#1 877398739#2 877398739#2.30 877398739#3 896786304#9 896786304#9.20 896786311#11 896786311#11.62 -951976011#1 951976010#1 -896786322 -896786322.14 -896786322.21 -896786323#1 896786325#4 896786325#4.12 896786335#6 951976007 951976006#2 -951976009#0 951930673#0 -951930675 -877396172#3 951976013#0 951930665#0 951930665#1 951930665#2 951930664#4 951930664#5 896786316#2 896786316#3 896786315#2 896786315#4 896786319#4 896786317#2 896786317#2.28 896786317#3 896786317#3.44 -896786335#3 -896786335#3.10 -896786335#2 951976001#0 -951976002 -951976000#1 -951975999 951946833#0 951946816#12 951946816#13 951946816#13.22 951946816#13.26 951946816#14 951946795#0 951946795#0.4 951946795#0.7 951946795#0.9 951946795#1 951946795#2 951946795#3 951946795#4 951946795#6 951946795#7 -951946797 951951639#11 951946796#0 951946796#1 951946795#10 951946795#11 951946795#11.34 951946795#11.40 951946795#11.45 -951887683 -951887684 -951887682#6 951887695#5 671756019#0 -951961251#1 -951961251#0 -876509484#7 -876509484#7.6 -876509484#7.25 -876509484#6 -876509484#6.3 -876509484#6.8 -876509484#6.12 -876509484#6.15 -876509484#5 -951878267#1 -951878267#0 -951878267#0.26 -951878267#0.29 -951878267#0.32 -951878267#0.34 951878264#2 -951878263#3 -951878266#4 -951878266#4.37 -951878266#2 -951878266#1 -951878266#1.39 -951878266#1.47"/>
</vehicle>
<vehicle id = "veh20" type= "veh_passenger" depart="21630" >
<route edges =" -45342801#4 45342799#23 45342799#25 45342799#25.7 45342799#25.22 45342799#26 45342799#27 45342799#27.15 45342799#27.20 45342799#27.25 45342799#27.36 972507120#0 -903341083#3 -903341083#2 -903341083#1 -903341083#0 672813677#4 672813677#4.8 903341082#1 -951368605#1 -951368605#0 45342811#1 45342811#2 45342811#2.66 45344273#23 45344273#23.11 45344273#24 -897252873#2 951379889 951379889.24 951379889.29 951379889.37 951379889.42 951379889.48 -951379890#0 -951379890#0.11 -951379890#0.26 -951379890#0.32 -951379890#0.35 -951379890#0.37 -951379890#0.41 -951379890#0.82 -951379890#0.84 -951379890#0.86 -951379890#0.88 -951379890#0.89 -951379890#0.91 -951379890#0.93 45344320#1 897252876#5 897252876#5.34 -45344322#2 951440589 951440589.20 951440589.22 951440589.24 951440589.26 951440589.29 951440589.45 951440589.47 951440589.49 951440589.52 -951404485 -45344321#0 -45344273#17 -45344273#17.20 -45344273#17.31 -45344273#16 -45344273#16.5 -45344273#16.30 -45344273#14 -45344273#14.32 -45344273#13 -45344273#12 -45344273#11 -45344273#10 -45344273#10.42 -45344273#9 -45344273#8 -45344273#8.10 -45344273#7 -45344273#7.22 -951384596#1 -951384596#1.24 -951384596#1.31 -951384596#1.36 -951384596#1.46 -951384596#1.54 -951384596#1.60 -951384596#1.72 -951384596#1.107 -951417467 -951417467.14 -951417467.15 -951417467.17 -951417467.18 -951417467.21 -951417467.23 -951417467.24 -951417467.25 951384598#2 -951384597 -951384597.29 -951384597.36 -951384597.43 -45344273#3 -45344273#3.6 -45344273#3.14 -45344273#3.31 -45344273#3.48 -45344273#2 -45344273#2.6 -45344273#2.24 -45344273#1 -45344273#1.7 -45344273#0 -897252881 -45378637#10 45378639#7 -951404483#2 -951404484#9 -951404484#9.20 -951404484#8 -951404484#6 951404482 45378639#9 45378639#10 45378639#11 45378639#12 45378639#12.8 -45344310#1 -45344310#0 -45344310#0.10 -45344310#0.18 -45344310#0.30 -45344310#0.41 -45344310#0.52 971495602#8 971495602#8.24 971495602#8.86 45340579#6 45340579#7 45340579#7.32 45340579#7.82 45340579#7.134 45340579#7.159 45340579#7.185 -908560867#2 -908560867#2.13 -908560867#2.25 -951404468#1 -951404468#1.18 -951404468#1.33 -951404468#1.62 -951404468#1.64 -951404468#1.65 -951404468#1.66 -951404468#1.67 -951404468#1.69 -951404468#1.79 -951404468#1.80 -951404468#1.83 -951404468#1.85 -951404468#1.88 -951404468#1.96 -951404468#1.98 -951404468#1.99 -951404468#1.101 -951404468#1.102 -951404468#1.107 -951404468#1.112 -951404468#1.119 -951404468#1.121 -951404468#1.122 -951404468#1.124 -951404468#1.126 -951404468#1.129 -951404468#1.131 -951404468#1.133 -951404468#1.135 -951404468#1.138 -951404468#1.141 951404467#0 951404467#0.8 951404467#0.12 951404467#0.16 951404467#0.31 951404467#0.34 -951435496#1 -951435496#1.16 -951435496#1.17 -951435496#1.18 -951435496#1.19 -951435496#1.20 -951435496#1.22 -951435496#1.27 -951435496#0 -951435494 -951435494.8 -951435494.19 -951435494.25 -951435494.33 -951435494.43 -951435494.50 -951435494.55 -951435494.60 -951435494.65 -313316104#4 -313316104#4.4 -313316104#4.18 -313316104#4.31 -313316104#4.41 -313316104#4.56 -313316104#3 -313316104#2 -313316104#2.13 -313316104#2.35 -313316104#2.44 -313316104#1 -313316104#0 -313316082 -45378649#12 896786296#0 -951355298#2 -951355298#2.7 -951355298#2.9 -951355298#2.11 -951355298#2.15 -951355298#2.38 -951355298#2.43 951355292 -45378649#9 -45378649#9.7 951355297#0 -951355296 -951354759#0 -951354759#0.4 -951354759#0.15 -951354759#0.20 -951354759#0.24 -45378649#5 -45378649#5.24 -45378649#5.57 -45378649#5.68 -45378649#3 -45378649#3.8 -896786265#8 -896786265#7 -896786265#7.11 951354765#0 951354763#1 951354763#2 -951358823 -951358823.62 -951358823.69 -951358823.74 -951358823.78 -896786335#26 -951995494#1 -951995491#2 951995493#0 951354763#5 -951995492#0 -951995491#0 -896786266#12 909024250#0 909024250#1 -951995490#1 -951995490#1.13 -951995490#1.16 -951995490#1.19 -951995490#1.23 -951995490#0 909024253#1 909024253#1.45 909024253#2 909024253#2.16 909024252#1 -896786266#7 -896786266#6 -896786266#6.39 -896786266#5 896786257#2 896786257#2.28 896786257#2.57 896786257#3 896786257#3.14 896786257#4 896786257#5 896786257#6 896786257#6.8 896786257#6.44 896786257#6.53 -896786293#4 -896786293#3 -896786293#3.1 -45378665#2 -45378665#2.36 -45378665#1 -45378665#0 -45378665#0.39 -45378665#0.75 -896786335#14 -896786335#14.27 909024236#1 909024236#1.12 909024236#1.82 909024239#1 909024239#1.17 909024239#2 909024239#2.40 877398366#3 -951995475#3 -896786288#1 896786291#1 896786291#1.19 -904371457 -904371460#2 -904371460#2.2 904371459 904371459.11 904371459.27 877398520#0 877398520#0.55 -951995479#1 -951995479#0 896786286#2 896786286#2.19 896786286#3 896786286#4 896786286#4.10 896786286#4.60 909024289#4 -896786283#1 -896786283#1.4 -896786283#1.24 896786269#0 896786269#1 896786269#1.22 -876614861#0 -876614861#0.36 877396033#1 877396033#1.18 896786284#0 896786284#0.89 -877398366#11 -877398366#11.11 -904371462#2 904371460#0 904371460#0.34 951995474 -877396860#7 -877396860#6 904371465#0 904371465#1 904371465#2 904371464 896786325#1 -896786328#1 -896786328#0 -896786328#0.177 -877395784#20 -877395784#19 -951946816#15 -951946816#14 -951946816#13 -951946816#13.3 -951946816#13.8 -951946816#12 -951946816#11 951946817#1 951946817#2 951946817#3 951946817#4 -951951636 951951635#2 -951946806#8 -951946806#7 -951946806#6 -951946806#6.36 -951946806#6.39 -951946806#6.41 -951946806#6.44 -951946806#4 -951946806#2 951951630 951946833#11 951946833#11.92 951946833#11.95 951946833#11.98 951946833#11.101 -951946806#0 -952365020 -952365021 -951878231#2 -951951643#6 -951951643#5 -951951643#4 -951951643#3 -951951646 -951951642#2 -876509484#2 -951951643#1 -951951643#0 951878263#8 951878230#4 -951891772#4 -951891772#3 -951878269#14 -951878269#13 -951878269#12 -951878269#10 -951930613 951878270#2 951878270#3 951930614 -951878269#7 -951891764#4 -951887656#2 -951887656#1 951878272#1 951887654#2 951887654#3 -951891764#1 951891763#0 951891763#1 -951887659#1 -951887660#5 -951887660#3 -951887662 951887661#2 951887661#3 951878266#0"/>
</vehicle>
</routes>
