<?xml version="1.0" encoding="UTF-8"?>
<routes xmlns:xsi="http: // www.w3.org/2001/XMLSchema-instance" xsi:noNamespaceSchemaLocation="http: // sumo.dlr.de/xsd/routes_file.xsd">
<vType id="veh_passenger" vClass="passenger"/>

<vehicle id = "veh0" type= "veh_passenger" depart="0" >
<route edges =" -45342801#4 -45342801#3 -45342801#2 -45342801#1 -45342801#0 45342798#2 45342798#3 45342798#4 45342798#5 45342813#0 45342813#1 45342813#2 -45342814#1 44740902#11 44740902#12 44740902#13 44740902#14 44740902#14.81 44740902#14.94 -874839172#0 -44740943 -313316091#20 951438760#0 951438760#1 -44740929#4 -951438759 44740922#2 44740922#2.25 44740953#0 44740953#2 44740953#3 44740953#4 44740953#5 44740953#6 44740953#7 44740949#2 -44740919#1 -44740919#0 44740920#8 -313316091#0 -313316091#0.27 -313316091#0.72 -313316091#0.80 -971495601#9 -971495601#9.28 -971495601#8 -971495601#7 -971495601#6 -971495601#5 -971495601#3 -971495601#1 -971495601#0 -313316086 -44739144#26 -44739144#24 -44739144#22 -44739144#21 -44739144#20 -44739144#19 -44739144#19.14 -44739144#18 -877398366#21 -877398366#20 -877398366#19 -877398366#18 -877398366#17 -877398366#17.7 -877398366#16 -877398366#15 -877398366#15.29 -877398366#14 -877398366#14.72 -877398366#13 -671191680#14 -671191680#13 -671191680#11 -671191680#9 -671191680#8 -671191680#6 -896786326#1 -896786326#0 -896786328#0 -896786328#0.177 -951951638#10 -951951638#10.18 -951951638#9 -951951638#8 -951951638#7 -951951638#5 -951951638#4 -951951638#3 -951951638#2 -951946794#1 -951946794#0 951946792#1 896786337#8 896786337#8.8 -951887683 -951887684 -951887682#6 -951887682#5 -951887682#4 -951887682#3 951887692 -951887691#0 -951887682#0 -951887700#14 -951961240#3 -951961240#1 -951961245 951891772#0 -951891773 -951891771#0"/>
</vehicle>
<vehicle id = "veh1" type= "veh_passenger" depart="0" >
<route edges =" 45342801#5 45342801#5.32 902433317#3 902433317#4 902433317#6 902433317#7 902433317#8 902433317#8.29 951368593#1 972507120#2 45342812#0 45342812#1 45342811#2 45342811#2.66 45344273#23 45344273#23.11 45344273#24 -897252873#2 -897252873#1 -897252873#1.42 -897252873#0 -897252873#0.25 897252876#4 45344320#2 45344320#3 -45344331#4 45344327#1 903341090 -45344335#4 -950235690#1 -950235690#0 -950235690#0.14 700254525#11 700254524#0 700254523 -700254525#0 45344272#4 950233988#0 45344283#9 45344283#10 45344283#10.15 45344283#10.46 45344283#10.69 45344283#10.88 45344283#10.150 45344283#10.196 45344283#10.260 45344283#10.377 45344283#10.468 45344283#10.514 670655885 670655885.12 896892975 971495602#12 971495602#12.26 971495602#12.77 951442813 951442812#0 -896786335#50 -896786335#49 -896786335#48 -896786335#48.15 -896786335#47 -896786335#46 -896786335#44 -896786335#44.9 -896786335#44.71 -896786335#43 -896786335#42 -896786335#42.22 -896786335#41 -896786335#40 -896786335#39 -896786335#39.27 -896786335#37 -896786335#36 -896786335#34 -896786335#33 -896786335#32 -896786335#32.17 -896786335#31 -896786335#31.22 -896786335#30 -896786335#29 -896786335#29.17 -896786335#28 -896786335#27 -896786335#27.19 -896786335#26 -951995494#1 -951995491#2 -951995491#1 -951995491#0 -896786266#12 909024250#0 909024250#1 909024250#2 909024250#4 909024250#5 909024250#6 909024239#0 909024239#1 909024239#1.17 909024239#2 909024239#2.40 -951983585 -951975994 -896786324#1 -896786324#0 -896786324#0.19 -896786324#0.132 -896786324#0.177 951951639#0 951946803#0 951946795#1 951946795#2 951946795#3 951946795#4 951946795#6 951946795#7 951946795#9 951946795#10 951946795#11 951946795#11.34 951946795#11.40 951946795#11.45 896786337#10 896786337#10.21 -951887700#20 -951887700#19 -671756019#4 -951961235 951961234#1 -951878265#2 -951878265#1 -951878265#0 951878264#2 -951878263#3 -951878266#4 -951878266#4.37 -951878266#2 -951878266#1 -951878266#1.39 -951878266#1.47"/>
</vehicle>
<vehicle id = "veh2" type= "veh_passenger" depart="0" >
<route edges =" 951370989 951370989.40 951370989.47 951370989.53 951370989.56 951370989.62 951370989.64 951370989.67 -902433320#1 -902433320#0 902433321#2 45342799#21 45342809#0 45342809#1 45342809#2 45342809#3 45342809#4 45342809#5 45342809#6 45342809#7 45342809#8 44740885#10 -45342826#1 -45342826#0 45342825#1 45342825#2 45342828#0 45342828#1 45342828#1.100 -45344273#6 -45344273#6.40 -45344273#6.59 -951384598#3 -951384598#2 -951404491 -951404491.16 -951404491.28 -951404491.40 -951404491.51 -951384599#0 700249213#9 700249213#10 700249213#11 45342808#10 45342808#11 45342808#11.24 45342808#12 -897252871 -897252870 -45344310#2 -45344310#1 -45344310#0 -45344310#0.10 -45344310#0.18 -45344310#0.30 -45344310#0.41 -45344310#0.52 971495602#8 971495602#8.24 971495602#8.86 -313316104#6 -45378650#5 -45378650#5.11 -45378650#4 45378645#0 45378645#0.44 -908846596#3 -908846596#2 45378650#1 -908846593 -908846593.73 908560901#8 908560901#8.23 908560901#8.56 -313316104#0 -313316082 -45378649#12 896786296#0 896786296#1 896786296#1.36 -896786262#6 -896786262#6.15 -896786262#5 -896786262#4 -896786262#4.31 -896786262#3 -896786262#3.9 -896786262#1 -896786262#0 -896786262#0.33 -896786262#0.115 -896786260#1 -896786260#1.5 -896786260#0 -896786260#0.52 896786257#4 909024248 909024248.50 -45378665#3 -45378665#3.29 -45378665#3.50 -45378665#2 -45378665#2.36 -45378665#1 -45378665#0 -45378665#0.39 -45378665#0.75 -896786335#14 -896786335#14.27 -896786335#13 -896786335#12 -896786335#12.15 -896786335#11 -896786335#10 -896786335#10.38 -951976010#1 -951976011#0 896786321#2 -896786320#3 -896786320#3.5 -896786320#1 -896786320#0 -896786316#3 -896786316#2 -896786316#1 -896786316#1.33 -896786314 -951930663#1 -951930663#0 -877395784#11 -877395784#11.58 951946825#0 951946825#1 -951946816#4 951946844 877399011#1 951946810#2 -896786337#14 -896786337#14.40 -896786337#14.111 -952365020 -952365021 -951878231#2 -951951643#6 -951951643#5 -951951643#4 -951951643#3 -951951643#2 876509484#2 -951951642#1 -951951642#0 -951878263#5 -951878269#15 -951891772#2 -951891774 951891771#2 951878270#2 877401978#0 877401978#1 951878266#0"/>
</vehicle>
<vehicle id = "veh3" type= "veh_passenger" depart="3605" >
<route edges =" -45342801#4 -45342801#3 -45342801#2 -45342801#1 -45342801#0 45342798#2 45342798#3 -45342837 -951441769 -951370985#0 -45342818#2 -45342818#1 -45342817#2 -45342817#1 45342816#0 951370984#1 45342813#2 -45342814#1 44740902#11 44740885#7 -45342841 -45342802#1 44740902#13 44740902#14 44740902#14.81 44740902#14.94 -44740942#2 -44740942#2.11 -44740942#1 -44740901#0 -313316089 -951438761 -44740929#5 -951438760#1 -672215964 672215965#1 44740922#1 951438759 -44740929#3 -44740929#2 -44740929#1 -44740967#3 -44740930#16 -44740962#2 951439009 44740929#8 44740929#9 44740929#9.20 -951421954 -951421954.20 -44740930#12 -44740930#11 -44740922#7 -44740989#1 -44740989#0 44740925#1 44740926#5 -44739167#10 -44739167#9 102277232#2 102277232#2.138 102277232#3 102277232#4 102277232#4.80 102277232#4.133 102277232#4.154 102277232#5 102277232#6 102277232#7 896892969#11 896892969#12 44740930#0 44740930#0.11 951358794#0 951358794#1 951358794#2 -44740927#0 -44740927#0.50 -44740927#0.65 896892969#14 896892969#14.13 951358796 44740937#1 44740937#1.16 44740937#2 44740937#2.6 44740937#2.10 44740937#2.13 44740937#2.18 951358795 44740927#2 -44740920#2 -44740920#1 -44740920#0 44740930#4 44740930#5 44739163#15 -44740981#1 44740983#0 -44740985#1 44740987 44740927#8 -951358800#1 -951358800#0 44740918#2 -44739163#18 -44739163#17 -44740926#8 -44740926#7 44740928#1 -951358805#1 -951358802 44740927#12 44740927#13 44740927#14 44740927#15 44740927#16 44740923#3 44740953#2 44740953#3 44739167#13 -44740945#1 44740946#0 44740948#0 -951438765 313316091#11 45378690#0 45378690#0.38 -45378691 45378682#1 -45378689#0 -45378683#0 -45378683#0.55 -313316091#6 45378684#0 45378684#0.22 45378684#0.71 45378684#1 -45378655#2 -45378655#1 -45378655#0 -45378688#0 45378689#2 45378689#4 45378689#5 45378639#1 45378639#1.38 45378658#0 45378658#1 45378641#0 45378641#1 45378641#1.76 -45378640#3 -45378640#2 45378658#3 -45378683#3 -45378653#6 -45378685#3 -45378685#2 -45378685#1 -45378685#0 -45378685#0.42 -313316091#4 -313316091#4.67 -45378657#4 -45378657#3 -45378657#3.57 -45378657#3.61 -45378657#3.65 -45378657#3.69 -45378657#3.73 -45378657#3.78 -45378672 -45378672.64 45378673 -45378657#1 -44740931#2 -44740931#2.59 -313316091#1 -313316091#1.32 -44740920#8 -951358792 -951358792.26 -951358792.42 -951358792.53 -951358792.66 896892969#18 45340579#18 45340579#18.164 44740932#0 909019790#0 909019790#0.39 -909019789#2 -909019789#1 44740916#7 44740916#8 44740916#9 44740916#9.64 -909019783 -909019783.98 -45378660#1 -45378660#1.21 -45378660#1.52 -45378660#1.88 -45378660#1.126 -908560900#3 -908560900#2 -908560900#1 908560901#22 908560901#22.77 908560901#22.89 -971495601#0 -313316086 -44739144#26 -903953334#9 -903953334#9.24 -903953334#9.50 -903953334#9.58 -903953334#8 -903953334#8.6 -903953334#8.17 -903953334#8.53 -903953325#4 -903953326#1 -903953326#0 -44739144#22 -896786294#12 -896786294#12.19 -896786294#12.25 -896786294#12.30 -896786294#12.36 -896786294#12.41 -909024262#1 -909024262#1.12 909024261 909024261.37 -702673217#1 -702673217#0 -44739144#18 671752228#0 -671960103#1 -671960103#0 671960104#1 671960104#2 671960104#3 671960104#4 671752228#2 671752228#3 -671960101#14 -671960101#13 -671960101#12 -671960101#10 44740913#4 903953323#0 -909778560#0 -909778560#0.13 44739144#12 44739144#13 -909024265#3 -952002225#0 -877398366#20 -877398366#19 -896786289#1 -896786289#1.72 -896786289#0 -896786289#0.7 -904371479#3 -904371474#3 -904371474#2 -904371472#1 -904371472#1.50 -904371472#0 -904371482#1 -904371482#1.50 -904371482#1.65 -904371482#0 -904371482#0.24 -904371482#0.73 951973452#0 951973452#1 951973452#2 951973452#3 -904371488#8 -904371488#8.6 -904371488#8.17 -904371488#7 -904371488#7.3 -904371488#7.6 951992361 -951973453#1 -951973453#0 904286387#2 904286387#2.18 904286387#3 904286387#3.5 904286387#3.12 671191683#4 -904371473#4 -904371473#3 -904371473#1 -904371473#1.10 904371470#0 904371470#1 904371470#2 -904286381#6 -951992355 904286375#0 904286372#1 -904286381#3 -904286381#3.6 -904286381#3.20 904286379 904286383#4 904286382#1 877396860#12 904286380#2 904286380#3 904286380#3.65 877398366#15 877398366#15.16 896786277#0 -896786276 -896786276.82 896786294#2 896786294#2.7 951992347 896786277#3 -909024256#0 -909024256#0.28 896786279#5 896786278#1 896786267#2 -877398366#13 671191680#15 671191680#15.58 877396033#0 876614861#0 876614861#0.13 876614861#1 -909024289#6 -909024289#6.17 -909024289#5 -896786283#1 -896786283#1.4 -896786283#1.24 -896786283#0 -896786283#0.23 877396033#4 877396033#4.19 -896786286#3 -896786286#2 -896786286#2.18 951995479#0 951995479#1 -877398520#0 -877398520#0.16 -904371459 -904371459.17 -904371459.33 904371460#2 904371460#2.34 904371457 -877398366#4 951995475#4 904371460#5 877396860#4 904371465#0 904371463#0 904371463#1 904371463#1.15 904286381#0 -904286374 904286375#3 -671191680#9 -671191680#8 896786325#0 896786325#0.98 896786325#0.107 896786325#0.114 896786325#0.120 896786325#0.127 896786325#0.178 896786325#1 -896786328#1 -896786328#0 -896786328#0.177 -951951638#10 -951951638#10.18 -951951638#9 -951973426#1 951951639#4 -951973432#1 -951951638#7 951946800#0 951951639#7 951951639#8 951951639#9 951951639#10 951951639#11 -952000398 -951951638#2 -951951638#1 -951951638#0 896786337#5 896786337#5.11 896786337#6 896786337#7 896786337#8 896786337#8.8 -951887683 -951887684 -951887682#6 -951887682#5 -951887682#4 -951887682#3 951887692 -951887691#0 -951887682#0 -951887700#14 -951961240#3 -951961240#1 -951961245 951891772#0 -951891773 -951891771#0"/>
</vehicle>
<vehicle id = "veh4" type= "veh_passenger" depart="3605" >
<route edges =" 45342801#5 45342801#5.32 902433317#3 902433317#4 902433317#6 -951368597 45342799#26 951368596 902433317#8 902433317#8.29 902433317#9 951368594#0 951368594#1 -951369743#1 -951369743#1.33 -951369743#1.39 951421966 -972507120#3 45342812#0 45342812#1 45342811#2 45342811#2.66 -45344273#22 -45344273#22.6 -45344273#22.18 -45344273#22.35 -45344273#21 -45344273#21.28 -45344273#19 45344322#0 -951404485 45344321#1 897252876#7 897252876#8 897252876#9 45344324#0 45344329#3 902433295#3 45344330#0 45344330#1 -45344333#0 45344329#5 45344329#6 45344329#7 45344320#3 -45344331#4 -45344331#3 -45344331#2 -45344331#1 -45344331#0 45344326#3 699875133 -699875130#0 -699875130#0.26 699875131#1 45344335#2 45344335#3 45344335#4 -903341090 897172091#12 -950400189 -950235691#2 -950235691#2.50 -45344320#7 -45344320#7.6 -45344320#7.12 -45344320#7.25 -45344320#7.29 -45344320#7.33 -45344320#7.37 -45344320#7.54 45344335#8 -45344336#7 -45344336#7.6 950235692#0 -950235694#2 -950732875#1 -950732875#0 -950235697#0 950235692#3 950235692#4 -45344273#35 -45344273#35.27 45344278#0 45344278#0.58 45344278#0.62 45344278#0.65 45344278#1 -950238178#4 -950238178#4.19 950238179#0 950238179#1 45344273#38 45344273#38.38 45344273#38.50 45344273#38.62 -950235700#3 -950235700#2 950235697#4 950235697#4.10 950235697#4.13 950235697#4.16 950235697#4.19 950235697#4.22 45344272#2 45344272#2.46 -45344336#3 -45344336#2 -45344336#1 -950238193#2 950553573 45344284#2 45344284#3 -950238192#4 -950238192#3 -950241233#1 950241229#0 950394094 950394094.44 950394094.47 950394094.49 950394094.55 950394094.58 950394094.62 -950392117#1 950392116#0 950392116#0.39 950392116#1 -45344280#7 950241224#0 950241224#0.21 950241224#0.25 950241224#0.29 950241224#0.34 950241224#0.39 950241224#0.43 950241224#0.53 950241224#1 950241224#1.3 950241224#1.8 950241224#1.32 950241224#1.51 950241224#1.66 950241224#1.78 -950390893#3 -950390893#1 -950390893#1.23 -950390893#1.49 -950390893#1.53 -950390893#1.57 -950390893#1.63 -950241225#1 950241224#3 700278832#5 700278832#5.53 45344280#12 45344280#13 45344280#14 45344280#14.13 45344280#15 45344283#5 45344283#6 45344283#6.72 45344283#6.89 45344283#6.131 45344283#7 45344283#7.36 45344283#8 950233988#1 950233988#1.76 950233988#2 950233988#2.43 950233988#2.55 -700278833#3 700278832#0 700278832#0.21 700278832#1 700278832#2 700278832#2.35 700278832#2.45 -950392119 -950392119.13 -950392119.17 -950392119.21 -950392119.29 -950392119.36 -950392119.48 -950392119.56 -950392119.64 950392121#0 950392121#0.13 950392121#0.18 950392121#0.24 950392121#0.35 950392121#0.44 950392121#0.54 950392118 950392118.21 950392118.25 950392118.27 950392118.39 950392118.42 950392118.45 950392118.47 -950241223#1 -950241223#1.3 -950241223#1.20 -950241223#1.36 950241222#4 950394096#0 -950394095 950241866#3 950241866#3.97 950241866#3.100 950241866#3.104 950241866#4 950241869#0 950241869#0.6 950241869#0.16 950394090#1 950394090#2 950394090#2.13 950394090#2.18 -950394093#0 950241233#3 -950241866#7 -950241866#7.13 -950241866#6 -950241866#6.11 -950241866#6.30 -950241865#0 950241848#0 -950241857#2 -950241863 -950241863.27 -950241863.30 -950241863.34 -950241857#0 950241861#1 951043905#0 951043905#1 951043905#1.35 951043905#1.39 951043905#1.42 951043905#1.46 950241859#1 950241847#1 902433322#2 45344271#5 -45344284#9 -45344284#8 -45344284#7 -45344284#7.68 -45344284#7.129 -45344282#3 -950238187 950238186#0 950238186#1 950238186#2 45344271#7 45344271#7.34 45344271#9 45344271#9.23 45344271#10 45344271#11 950806850#0 -950806860#1 950235723#1 -45344277#7 950806858 950235725#7 897252880#4 950235729#0 950235729#1 950235729#2 950235729#3 950235730#1 -950872165#1 -950872165#0 45344285#7 45344285#7.32 45344285#7.36 45344285#7.39 45344285#7.44 45344285#8 -951077738 951077740#2 951077739#1 951077739#1.17 951077739#2 951077739#2.3 951077739#2.7 -45344285#4 950641812#0 950641812#2 950641812#3 950641809#0 -950641810 -950641810.14 -950641810.18 -950641810.22 -950641810.27 950235732#1 950235732#2 950641808 950641808.26 950641808.28 950641808.30 950641808.33 -950641811#0 -950641811#0.3 -950641811#0.9 950235732#4 950235732#5 950235732#5.16 951077734#0 -950241846#1 -950241846#1.22 951043903 950241823#3 45344284#12 45344284#12.58 950872160#0 951077740#0 -951077737 -951077737.28 -951077737.44 45344285#10 45344285#10.3 45344285#10.10 45344285#10.14 45344285#10.20 45344285#10.25 950872160#2 950872160#2.4 950872160#3 950872160#4 950872160#4.25 950872160#5 950872160#6 950872160#7 950872160#8 -950929122#2 951077732#0 951077732#1 951077732#1.17 951077732#1.20 951077732#1.24 951077732#1.26 -950929127#13 -950929127#13.7 -950929127#12 -950929127#11 -950929127#10 -950241837#1 -950241837#1.71 -950241837#1.96 -950241837#1.99 -950241837#1.102 -950241837#1.105 -950241837#1.108 -950241837#0 950241834#2 -950929127#6 -950929127#5 -950929127#4 -950929127#4.20 950241828#0 950241821#5 950241821#6 950241821#6.22 -950241825#1 -950241825#1.50 950241818#4 -951014856 -951014856.40 -951014856.44 -951014856.48 -951014856.53 -951014856.76 -951014856.80 -951014856.83 950241818#6 950241818#6.9 -950241831#0 -950929127#2 -950929127#1 950241823#5 -950241818#2 950929121#0 950929121#0.14 950929121#0.18 950929121#0.21 950929121#0.26 950241819#0 950241819#1 950241819#2 -950241821#9 -950241821#8 950241823#7 -951014868#1 -951014868#0 950241825#4 950241825#5 950241825#5.8 -950243393#5 -950243393#5.41 950241823#10 -897252878#9 -897252878#9.96 45344271#0 950243393#3 950243393#3.20 971905923 -951014855#0 45344271#2 45344271#2.26 -950241848#5 -950241848#5.35 -950241848#4 -950241848#3 950241850 -950241851#0 950241857#4 -950243393#0 45344282#7 -897252877#2 -897252877#2.49 950243392#0 950243392#1 -950243391#0 -950243391#0.66 -950243391#0.74 -950243391#0.79 -950243391#0.86 -950243391#0.116 950241209#5 950241209#5.13 45344280#2 45344280#2.21 -950241220#4 -950241220#3 -950241220#2 -950241220#1 -950389244#1 -950389244#1.19 -950389244#1.34 -950389244#0 -950389244#0.11 -897252879#13 -897252879#12 -897252879#12.59 -897252879#11 -897252879#11.67 -897252879#11.92 -897252879#10 -950396020#3 -950396020#1 -950396020#1.13 -950396021#0 -950396021#0.23 -950396021#0.28 -950396021#0.34 -950396021#0.39 -950396021#0.45 -950396021#0.50 -950396021#0.55 -950396022#0 897252878#1 897252878#2 897252878#3 -950396018#3 -950241855#5 -950241855#5.40 -950241855#5.44 -950241855#5.47 897252878#5 897252878#5.15 950241207#0 950397769#0 950397769#1 950397769#2 -950241202#1 -950241202#1.30 -950241202#0 -897252879#3 950241203 950241203.46 950241203.47 950241203.49 950241203.51 950241203.66 950241203.68 950241203.70 950241203.73 -897252879#1 -897252879#1.25 -897252879#0 -897172107 -897172108#14 897172106#11 897172106#11.24 -950239902 -950239902.40 -950239902.55 -950239902.71 -950239901#2 950239900#0 950239883#0 950239883#0.10 950239883#0.21 950239883#0.30 950239883#0.38 950239883#0.48 950239883#1 950239883#1.39 950239883#1.63 950239883#1.82 950239883#1.118 950239883#2 950239883#2.23 950239883#2.49 950239884#0 950239887#0 950239887#0.41 -951132944#1 -897615335#4 950239888 -897615334#0 -897615334#0.16 -897615335#2 -897615335#2.11 -897615335#2.27 -897615335#1 -950304248#2 -950304248#2.22 950239894#2 -671176469#15 -671176469#14 -671176469#13 -897615343#8 -897615343#8.6 -897615343#8.11 -897615343#7 -897615343#7.16 897615336#0 897615336#0.80 -950239895#0 897615334#4 897615334#4.10 897615334#5 897615334#5.21 897615334#6 -897615343#4 -897615343#4.17 -897615343#4.53 -897615343#3 -897615343#3.36 950293294 950293294.21 950293294.24 950293294.27 950293294.44 950293294.50 950293294.58 950293294.65 950293294.80 950293294.85 950293294.91 950293294.96 -897615342#1 -897615342#1.8 -897615342#1.23 -950241210 -950241210.27 897172106#17 897172106#17.12 897172106#18 897615338#0 897615338#1 897615338#2 897615338#3 897615338#5 897615338#5.24 897615338#5.44 -950293293 -950239877#2 -950239877#2.21 -950239877#2.42 -950239877#1 -950239877#0 -950287959#0 45343180#6 897615341#0 897615341#0.17 950287964#0 950287964#0.57 950287964#0.66 950287964#0.71 950287964#0.76 950287964#1 -950287963 -950287963.22 -950287963.43 897615341#2 897615341#3 897615341#3.8 671176477#8 671176477#8.18 671176477#8.36 671176477#8.64 897615339#0 950239880#0 950239880#1 950239880#2 950239880#3 -45343180#0 671176477#11 671176469#7 671176469#8 671176469#9 -897615378#7 -897615369#2 -897615371#3 -897615368 -950232592#2 897315577#2 -897615363#1 -897315579#10 -950232592#0 -897615362#0 -897315574#1 -897315574#1.30 -897315574#0 -671176469#5 -671176469#4 897315573#0 897315575#1 -897315576#0 -897315576#0.9 897315572#1 897315573#2 897315573#2.12 897315573#3 897315578#14 897315578#14.17 -951136520#1 897315566#4 -897315567#2 -897315567#1 -897315567#1.16 -897315567#0 896940752#3 896940752#4 896940752#4.22 896940752#4.82 -951136519 -951136519.10 -951136519.23 897615347#1 -897615348#3 -897615348#3.18 -897615348#2 951136517 897615349#3 897615349#3.11 897615349#3.17 897615349#3.23 897315571#4 897315571#4.31 897315571#5 897315571#6 950232593#1 950232593#1.37 950232593#2 -950232595#6 -950232595#5 -950232595#4 -950232595#4.29 -950278757 950278758#1 950278758#2 950278751#3 950278751#3.8 950278751#3.10 950278751#3.12 950278751#3.14 -671176475#6 950232595#0 950232595#1 950239881#2 950232594#3 950232594#3.10 950232594#4 950232594#4.26 -950232596#8 -950232596#7 -951141457#2 -951141457#2.48 -951141457#2.53 -951141457#2.58 951141456 -950232596#5 -950232596#5.11 -950232596#4 -950232596#4.9 951141459#0 951141459#1 951141458#2 951141458#2.11 951141458#2.18 951141458#2.24 951141458#2.29 951141458#2.37 951141458#2.45 951141458#2.53 951141458#2.64 951141458#2.77 951141458#3 950278751#0 -950280674 -671176475#3 -671176475#3.2 -671176475#3.34 -671176475#3.40 -950239856#7 -950239856#7.18 -950239856#6 -950239856#6.12 -950239856#5 -950239856#5.5 -950239856#5.16 950239859 950239859.34 -671176475#0 -671176477#6 -671176477#6.25 -950239856#3 -950239856#2 -950239856#2.35 -950239856#1 -950239856#1.19 950241214#3 950241214#3.37 950241214#3.46 950241214#3.56 950241214#3.63 -950241212#0 45343180#8 45343180#8.54 -950239861#5 -950239861#4 -950239861#4.75 -950239861#4.114 -950239861#4.121 -950239861#4.126 -950239861#4.132 950241214#0 950241217 950241217.46 950241217.50 950241217.54 950241217.58 950241218 950241218.22 -671176477#4 -671176477#4.46 -950239861#2 -950239861#1 950239862#5 950239862#6 950239862#6.12 950239862#6.25 950239862#6.31 950239862#7 950239862#7.8 950239875#0 950239875#0.11 950239875#0.17 950239875#0.24 950239875#0.29 950239875#0.35 950239875#0.40 950239875#0.46 950239875#0.54 950239875#0.61 950239875#0.102 950239875#0.105 950239875#0.107 950239875#0.111 950239875#0.146 950239875#0.155 950239875#0.162 -950239871#3 950239872#0 950239872#1 897172100#6 897172100#6.11 897172100#6.19 897172100#6.29 897172100#6.43 897172100#6.59 897172100#6.85 897172100#6.108 897172100#8 897172100#8.31 671176479#0 671176479#0.43 -950273502#3 -950273502#2 -950273502#2.38 -950273502#1 -950273502#1.14 -950273502#1.28 950276714#0 950239871#0 950239871#0.14 -950282462 -950282462.26 -950282462.36 -950282462.45 -950282462.53 -950282462.60 -950282462.67 -950276710#1 -950276710#1.5 -950276710#1.13 -950276710#0 -950276710#0.10 -950276710#0.32 950239862#3 950239862#3.28 -950239863#1 -950239863#0 -950239863#0.36 -671176477#2 -671176477#2.29 -671176477#1 -671176478#0 -671176478#0.38 -671176478#0.42 -671176478#0.45 -671176478#0.50 -671176478#0.54 -897172102 -897172103 -671176472 897252879#17 897252879#18 897252879#18.162 897252879#19 897252879#19.29 897252879#20 897252879#21 897252879#21.85 897252879#22 897252879#23 896892972 896892973 896892973.27 896892973.31 -896786335#50 -896786335#49 -896786247#9 -896786247#9.8 -896786247#9.17 -896786247#9.75 -896786247#9.157 -896786247#8 -896786247#7 -896786247#7.2 -908869249#2 -908869249#2.8 -908869249#2.14 -908869249#2.28 -908869249#1 -908869249#0 -908869249#0.10 -896892977#2 908869250#5 -908869248#1 -908869248#1.4 -908869248#1.6 -908869248#1.9 -908869248#1.11 -908869248#1.19 -951358827#2 -951358826 -951358826.10 -951358826.13 -951358826.16 -951358826.19 -951358826.36 -951358826.40 -951358826.44 -951358826.49 -896786335#42 -896786335#42.22 -896786335#41 -896786335#40 -896786335#39 -896786335#39.27 -896786335#37 -896786335#36 -896786248#1 -896786248#1.14 -896786248#1.27 -896786248#0 -896786248#0.20 -896786248#0.52 -896786248#0.67 -896786248#0.105 -896786248#0.138 -896786248#0.216 -896786248#0.226 -45378649#7 -45378649#7.4 -45378649#5 -45378649#5.24 -45378649#5.57 -45378649#5.68 -45378649#3 -45378649#3.8 -896786265#8 896786264 896786264.45 896786264.99 896786263#1 896786263#2 896786263#2.22 -896786253 -896786253.32 -896786253.95 -951358824#1 -951358824#0 -951358824#0.36 -951358824#0.42 -951358824#0.47 -951358824#0.59 -951358824#0.67 -951358824#0.72 -951358824#0.78 -896786335#27 -896786335#27.19 951358823 951358823.10 951358823.15 951358823.20 951358823.26 951354763#3 951995494#0 -951995491#2 951995493#0 951995493#1 -896786265#2 -951995492#1 -951995492#0 -951995491#0 896786266#13 896786266#13.14 -896893013#7 -896893013#7.29 -896893013#7.87 951995483 -896893004#2 951995485 -896893005#0 -896893005#0.12 -896893005#0.57 -896893005#0.74 -896786308#6 -896786308#6.17 -896786308#4 -896786308#3 -896786308#3.7 -877388976#0 -877388976#0.15 -877388976#0.50 -896786307#4 -896786307#4.9 -896786305#1 -896786305#1.42 -896786305#0 -896786305#0.72 -896786305#0.81 -896786309#0 896786304#2 896786300#0 896786300#0.23 896893013#0 896893013#0.10 896893013#0.59 -896893009 -896893009.79 -896893012#4 -896893012#3 896893006 -896893008#0 896786300#2 896786300#2.40 896786300#2.70 896786300#3 896786300#3.17 45378665#0 45378665#0.11 45378665#0.47 909024239#0 909024239#1 909024239#1.17 909024239#2 909024239#2.40 -951983585 -951975994 896786325#3 -896786323#0 -896786323#0.137 -896786323#0.139 -896786323#0.141 -896786324#0 -896786324#0.19 -896786324#0.132 -896786324#0.177 951951639#0 951951639#1 951946802 951946795#2 951946795#3 951946795#4 951946795#6 951946795#7 951946795#9 951946795#10 951946795#11 951946795#11.34 951946795#11.40 951946795#11.45 896786337#10 896786337#10.21 -951887700#20 -951887700#19 -671756019#4 -671756019#3 951961253 951961253.63 951961253.68 951961253.73 951961233#1 -951878265#2 -951878263#0 -951878263#0.69 -951878263#0.76 951961251#0 951961247#0 951961248#0 951961248#1 -876509484#6 -876509484#6.3 -876509484#6.8 -876509484#6.12 -876509484#6.15 -876509484#5 -951878267#1 -951878267#0 -951878267#0.26 -951878267#0.29 -951878267#0.32 -951878267#0.34 951878264#2 -951878263#3 -951878266#4 -951878266#4.37 -951878266#2 -951878266#1 -951878266#1.39 -951878266#1.47"/>
</vehicle>
<vehicle id = "veh5" type= "veh_passenger" depart="3605" >
<route edges =" 951370989 951370989.40 951370989.47 951370989.53 951370989.56 951370989.62 951370989.64 951370989.67 -902433320#1 -902433320#0 902433321#2 45342799#21 45342809#0 45342809#1 -45342835#2 951368603#0 951368601#0 -951368602#1 951370983 -45342797#1 -45342797#0 -45342834#1 -45342834#0 44740902#8 44740902#9 44740902#9.47 44740902#10 44740902#10.9 45342814#1 45342814#2 -45342816#1 -951370984#0 45342803#7 45342817#2 45342818#1 45342818#2 45342818#3 45342814#5 -45342809#7 45342839#0 -45342838#2 -45342838#1 -671416443#2 -671416443#1 -671416443#0 671416444#2 45342810#2 45342810#3 45342810#4 45342810#4.21 45342810#5 -973399407#2 -973399407#1 951366784 -951366785 45342810#10 45342810#10.5 -44740885#12 -44740885#12.2 -44740885#12.5 45342829 45342827#1 -45342826#0 -45342825#0 -45342809#10 -45342809#10.53 -45342809#9 -44740885#9 -44740885#9.34 -45342803#4 -45342803#3 -45342803#2 -45342803#1 44740957#0 44740957#1 45342843#0 45342844 45342808#1 45342808#1.36 45342804#0 45342804#1 45342804#2 45342832#0 45342832#1 -45342822#0 45342831#3 45342809#12 45342809#14 45342824#0 45342824#1 45342824#2 951366786 45342833#4 45342823#1 45342823#2 45342828#1 45342828#1.100 -45344273#6 -45344273#6.40 -45344273#6.59 -951384598#3 -951384598#2 -951404491 -951404491.16 -951404491.28 -951404491.40 -951404491.51 -951384599#0 -700249213#7 -700249213#7.47 -700249213#7.56 -700249213#7.59 -700249213#7.61 -700249213#7.65 -700249213#6 -897252869#3 -897252869#2 -897252869#1 -45344315#0 -45344315#0.31 -951404492 700249212#3 45342808#9 45342808#10 951370965#0 951370965#0.26 951370965#0.30 951370965#0.33 951370965#0.37 951370965#0.40 -951417471 -951417471.23 -951417471.42 45342808#12 -897252871 -897252870 -45344310#2 -45344310#1 -45344310#0 -45344310#0.10 -45344310#0.18 -45344310#0.30 -45344310#0.41 -45344310#0.52 971495602#8 971495602#8.24 971495602#8.86 45340579#6 45340579#7 45340579#7.32 45340579#7.82 45340579#7.134 45340579#7.159 45340579#7.185 45340579#8 45340579#8.28 45340579#8.73 -45378643#7 -45378643#7.12 -45378643#6 -45378643#6.10 -45378643#5 -45378643#5.11 -45378643#4 -45378643#4.5 -45378643#4.18 -45378643#2 -45378643#0 -45378643#0.26 -45378651#11 -45378651#10 -908560874#2 -908560874#2.42 -908560874#2.61 -908560874#2.69 -908560874#2.78 -908560874#2.102 -908560874#2.112 908560873#0 908560873#0.27 908560873#1 -908560864 -908560864.31 -908560866#0 -908560866#0.1 -908560866#0.7 -908560866#0.13 -908560866#0.32 -908560874#0 -908560874#0.14 -908560901#17 -908560901#17.7 -908560901#16 -908560901#16.20 -908560901#15 -908560901#14 -908560901#14.9 908560885#0 908560885#0.20 908560885#0.52 908560885#0.79 908560885#2 908560885#2.7 -951347807 951347808#1 -45378651#4 908560887#0 908560887#0.10 951436329#0 951436329#0.45 951436329#0.47 951436329#0.49 951436329#0.50 951436329#0.52 951436329#1 -908560882#2 -908560882#2.31 -908560882#2.36 -908560882#2.42 -908560882#2.46 -908560882#2.49 -908560882#2.63 -908560882#1 951436655 951436655.55 908560868#1 908560868#1.11 908560868#1.28 908560881#1 908560881#1.17 951347806#0 951347806#0.30 951347806#0.32 951347806#0.34 -951436327 -951436327.3 -951436327.5 -951436327.7 -951436327.22 -951436327.25 -951436327.29 -951436327.34 -951436327.38 -951436327.40 -951436327.51 -951436327.55 -951436327.60 -908560886#1 -908560886#1.3 -908560886#1.6 -908560886#1.11 -908560886#1.25 -908560886#1.40 -908560886#0 -908560886#0.7 -908560888#2 -908560888#2.7 -908560888#2.15 -908560888#2.23 -908560888#2.29 -908560888#2.38 -908560888#2.44 -908560888#2.50 908560867#0 908560867#0.11 908560867#1 -951404468#1 -951404468#1.18 -951404468#1.33 -951404468#1.62 -951404468#1.64 -951404468#1.65 -951404468#1.66 -951404468#1.67 -951404468#1.69 -951404468#1.79 -951404468#1.80 -951404468#1.83 -951404468#1.85 -951404468#1.88 -951404468#1.96 -951404468#1.98 -951404468#1.99 -951404468#1.101 -951404468#1.102 -951404468#1.107 -951404468#1.112 -951404468#1.119 -951404468#1.121 -951404468#1.122 -951404468#1.124 -951404468#1.126 -951404468#1.129 -951404468#1.131 -951404468#1.133 -951404468#1.135 -951404468#1.138 -951404468#1.141 951404467#0 951404467#0.8 951404467#0.12 951404467#0.16 951404467#0.31 951404467#0.34 951404467#1 951404467#1.1 951404467#1.5 951404467#1.9 951404467#1.15 -908560887#7 -908560887#7.10 -908560887#7.18 -908560887#7.26 -908560887#7.31 -908560887#7.34 -908560887#7.37 -951435494 -951435494.8 -951435494.19 -951435494.25 -951435494.33 -951435494.43 -951435494.50 -951435494.55 -951435494.60 -951435494.65 313316104#5 313316104#5.24 313316104#5.44 313316104#5.58 -45378650#5 -45378650#5.11 -45378650#4 45378645#0 45378645#0.44 -908846596#3 -908846595#1 -908846595#0 -908846595#0.21 -45378647#0 -45378647#0.12 -45378647#0.51 908560901#6 908560901#6.50 908560901#6.91 908560901#6.131 908846596#0 908846596#0.25 908846596#1 45378650#1 -908846593 -908846593.73 908560901#8 908560901#8.23 908560901#8.56 -313316104#0 -313316082 -45378649#12 -45378649#11 -45378649#11.22 -45378649#10 -45378649#10.20 -951355292 -951355298#1 -951355298#1.5 -951355298#1.10 951355297#2 951355297#2.63 -896786262#5 -896786262#4 -896786262#4.31 -896786262#3 -896786262#3.9 -896786262#1 -896786262#0 -896786262#0.33 -896786262#0.115 -896786260#1 -896786260#1.5 -896786260#0 -896786260#0.52 896786257#4 909024248 909024248.50 -45378665#3 -45378665#3.29 -45378665#3.50 -45378665#2 -45378665#2.36 -45378665#1 -45378665#0 -45378665#0.39 -45378665#0.75 -896786335#14 -896786335#14.27 -896786335#13 -951983587#9 -951983587#8 -951983587#7 -951983587#6 -951983620#1 951983621#1 951983621#1.6 951983621#1.10 -951983587#4 -951983587#4.5 -951983587#4.15 -951983587#4.17 -951983587#4.21 -951983587#4.25 -951983587#4.34 -951983587#3 -951983587#3.2 -951983589#1 -951983589#1.108 -951983589#1.123 -951983589#1.137 896786304#8 896786304#8.15 -877398739#3 -951983590 -896786311#9 -896786311#8 -896786311#7 -896786311#6 -896786311#6.24 -896786311#4 -951930671#3 -951930671#3.23 -951930671#2 -951930671#2.8 -951930671#1 -951930671#0 -951930671#0.25 -951930671#0.32 -951930671#0.42 877396172#5 -896786320#0 -896786316#3 -896786316#2 -951930664#5 -877396172#0 -877396172#0.15 896786313#3 896786313#3.51 896786313#3.88 896786313#3.110 896786313#3.151 896786313#3.164 896786313#3.186 896786313#3.223 896786313#3.237 896786313#3.246 896786313#3.253 -896786312#1 -896786312#1.17 -896786312#1.24 -896786312#0 -896786312#0.11 -896786312#0.35 -896786312#0.60 -896786312#0.135 -896786311#2 -896786311#1 -896786311#1.19 -896786311#0 -896786311#0.35 951983599 -951935291#3 -951935291#3.17 951930682#0 951930682#1 -951930681#1 -951930681#1.3 -951930681#1.6 -951930681#1.9 -951930681#1.12 951935254#2 -951983613#0 951930681#3 951930681#3.13 951983606#1 951930680#2 951930680#2.22 951930680#3 951930680#3.7 951930680#4 877396480#1 877396480#2 877396480#3 877396480#4 877396480#5 877396480#5.5 877396480#5.10 877396480#6 877396480#7 877396480#7.18 877396480#8 877396480#8.7 -877389028#15 951935258 -951935257#1 -951935291#1 877389028#11 877389028#11.9 -951935289#1 -951935289#0 951935286#1 -951935287 -951930661#3 -951930661#3.14 -951930661#2 951930662#0 951930662#1 951930662#1.184 951930662#2 -951976000#2 -951976000#2.3 -951976000#2.6 -951976000#2.8 -951976000#2.12 -951976000#1 -951975999 -877395784#14 -877395784#14.13 951946817#0 951946816#11 951946833#1 951946833#2 951951641 951946817#3 951946817#4 -951951636 951951635#2 951946818#2 951946821#0 951946821#0.45 951946821#0.47 951946821#0.51 951946823 -951946816#9 -951946816#7 -951946816#6 -951946816#6.36 -951946816#6.40 -951946816#6.43 -951946816#6.46 -951946816#5 -951946816#5.8 -951946816#5.11 -951946816#5.14 -951946816#5.18 -951946816#4 951946844 877399011#1 951946810#2 -896786337#14 -896786337#14.40 -896786337#14.111 -952365020 -952365021 -951878231#2 -951951643#6 951951644#0 -951951642#4 -951951642#3 -951951642#3.15 -951951642#3.18 -951951642#3.20 -951951642#3.23 -951951642#3.36 -951951642#3.39 -951951642#3.41 -951951642#3.43 -951951642#2 -876509484#2 -951951643#1 951951648#0 951951649 -951878263#6 -951878263#5 -951878269#15 -951891772#2 -951891774 951891771#2 951930613 -951878269#9 951891767 -951891766#0 -950288028#0 -951878269#4 951878272#0 951887656#1 951891765#1 -951887654#2 951878272#2 -951887657 -951887655#1 -951887655#0 -904196454#0 700825962#5 700825962#5.39 700825962#6 700825962#7 700825962#7.15 700825962#7.28 700825962#8 700825962#8.3 951887700#0 700825961#5 700825961#5.31 700825961#5.42 700825961#6 700825961#6.39 951887664#0 951887664#1 904196454#5 904196454#6 -951887665 -951961236#0 -951887700#4 904196454#8 904196454#8.42 904196452#6 -951887668#1 951887671#0 951887671#1 -951887672#3 -951887672#2 951887667#7 -904196453#11 951887674#0 951887674#1 951887674#1.3 951887674#1.7 951887674#2 951887678#0 951887679#0 951887679#1 951887679#1.56 951887679#1.60 951887679#1.63 951887679#1.66 951887680 951887678#2 -951887700#8 -951887700#8.24 -951887700#8.28 -951887700#8.30 -877401978#3 -877401978#3.69 -951887664#3 951887663#1 951887663#2 951887663#3 -951887660#0 877401978#1 951878266#0"/>
</vehicle>
<vehicle id = "veh6" type= "veh_passenger" depart="7210" >
<route edges =" -45342801#4 -45342801#3 -45342801#2 -45342801#1 -45342801#0 45342798#2 45342798#3 45342798#4 45342798#5 45342798#6 44740902#9 44740902#9.47 -951370984#2 45342813#2 -45342814#1 44740902#11 44740902#12 -671399056 -671399058#1 -671399058#0 -44740885#3 -44740901#6 -44740901#5 44740896#0 44740896#1 44740896#2 974189220#2 974189220#3 951417475#1 -671399049#1 -671399049#0 -671399051#0 -44740942#1 -44740901#0 -313316089 -951438761 -44740929#5 -44740929#4 -44740929#3 -44740929#2 951438762 951438763#1 951438763#1.5 44740967#2 44740967#3 -44740929#0 -44740930#11 -44740930#10 -44740930#9 -44740930#8 -44740930#7 -44740930#6 -44739163#14 102277232#3 44739156#13 44739156#14 44739156#15 44739156#16 44740927#5 44740927#6 -44740987 44740985#1 -44740983#0 44740981#1 44739163#16 -44740926#8 -951358806#1 -951358806#0 -951358801 -44740953#5 -44740953#4 -44739167#12 -44739167#11 -44740926#5 -44740926#4 -951358803 -44740955#0 44740925#3 44740927#15 -44740924#1 -44740924#0 -44740926#1 -44740926#0 -44740922#5 -44740922#5.62 -44740922#3 44740953#0 -951438764 -951438764.47 -951438764.119 -313316091#14 -313316091#14.20 -313316091#12 -313316091#11 951438765 44740948#1 -44740940#1 44740945#0 44740945#1 44739167#14 44740949#0 44740949#1 44740949#2 -44740919#1 -44740931#0 -44740918#0 44740920#6 44740920#8 -313316091#0 -313316091#0.27 -313316091#0.72 -313316091#0.80 45340579#18 45340579#18.164 45340579#19 45340579#19.12 45340579#19.84 45340579#20 45340579#20.80 955813297#0 955813297#1 44740916#1 44740916#1.7 44740916#1.16 44740916#2 44740916#2.8 44740916#2.32 -909019775 -909019775.30 -909019776#2 -909019776#2.33 -909019776#2.36 -909019776#2.39 -909019776#2.41 -909019776#2.74 -909019776#1 -909019776#1.34 -909019776#0 -909019776#0.39 44740910#4 -44740933#2 -44740933#1 -44740933#0 -909019791#2 -909019791#1 -909019790#1 -909019790#0 -909019790#0.12 44740932#2 44740916#8 -668599377#1 -668599377#1.15 -668599377#0 -668599377#0.24 -44740934#3 -44740934#3.33 -909019780#1 -909019780#0 668599376#1 668599376#2 668599376#2.6 -668599375#0 44740916#11 44740916#12 -909019766#1 -909019766#1.6 -909019766#1.14 -909019766#1.30 -909019766#1.52 -909019766#0 909019767#1 909019767#1.24 909019767#1.35 -971495601#5 -971495601#3 -951346855#1 -951346855#1.22 -951346855#1.42 -951346855#1.57 -951346854 -951346854.30 -951346854.33 -951346854.34 -951346854.36 -951346854.39 -951346854.40 -951346854.42 -951346854.50 -951346854.52 -951346854.54 -951346854.56 -951346854.59 -951346854.61 -951346854.62 -951346854.64 -951346854.65 -951346854.67 -951346854.69 -951346854.101 -908560901#21 -908560901#21.18 -908560901#21.74 -908560901#20 -908560901#20.10 -908560901#20.61 -908560901#20.115 -908560901#19 -908560901#19.77 -908560901#19.104 -896786299#0 -896786298 -45378665#19 896786296#12 896786296#12.21 896786296#12.68 896786296#13 896786296#13.14 896786296#14 896786296#14.11 -909024259#2 -909024259#2.7 -909024259#2.19 -909024259#2.45 -909024259#2.64 -909024259#1 -909024259#1.12 -909024259#0 896786295#5 -896786282#4 -896786282#4.21 -896786282#4.92 -896786282#3 -896786282#3.19 -896786282#3.45 896786273#0 896786280#0 896786280#0.19 896786280#0.47 896786280#1 -896786275#5 -896786275#4 -896786275#3 -896786275#2 -896786275#2.8 -896786275#1 -896786275#1.18 896786269#7 -951421977 896786268#3 -896786295#12 -896786295#12.21 -896786295#10 -896786295#9 909024279#0 909024279#0.32 909024278#0 909024278#0.46 909024278#0.119 909024278#1 909024278#1.42 896786294#7 896786294#7.18 896786294#8 896786294#10 -909024271#1 -909024272#1 -909024272#1.11 -909024272#1.35 909024273#0 909024273#0.33 909024273#1 -909024277#3 -909024274 909024275#1 909024273#3 896786296#18 896786296#18.4 896786296#18.17 -44739144#24 903953326#0 903953326#1 -903953325#3 -903953325#2 -903953325#2.18 -903953325#1 903953324#0 951361609 -909778547#0 -44739144#19 -44739144#19.14 -44739144#18 -44739144#16 -44739144#15 -44739144#13 -877396860#22 -877396860#21 -904371477 -904371477.66 -904371478#1 -904371478#1.6 904371479#1 904371479#1.2 904371479#1.8 904371479#1.27 904371479#1.58 -904371474#3 -904371474#2 -904371474#1 -904371474#0 -904371474#0.12 904286386#3 904286386#3.9 904286386#3.31 904286386#4 904286386#4.19 904286386#6 904286386#7 951973455 951973456#1 -951973451#0 -671191683#0 -671191683#0.3 -671191683#0.13 -671191683#0.21 -904371488#2 -904371488#2.8 -904371488#2.11 -904371488#2.18 -904371488#1 -904371488#0 -904371488#0.22 904286385#10 904286385#12 904286385#13 904286385#13.24 904286384#0 904286384#1 904286384#1.16 904286384#2 904286384#2.14 877396860#15 -904286386#1 -904286386#1.81 -904286386#0 877398366#17 877398366#17.93 877398366#18 896786289#2 702673217#3 702673217#4 702673217#5 896786276 896786276.34 -896786277#0 -877398366#15 -877398366#15.29 -877398366#14 -877398366#14.72 -904286382#4 -904286382#4.34 -904286382#3 -904286382#2 -877396860#11 671191680#14 -877398366#12 896786284#1 -877396860#9 -877396860#9.4 -904371462#0 -904371463#0 904371465#1 904371465#2 904371467#2 904371467#2.64 904371467#2.129 -671191680#8 -904286371 904286373#3 904286373#3.20 904286373#3.23 904286373#4 -904286385#6 951973468#1 -951973469 -904371490#1 -904371490#0 671191680#5 -896786326#1 -896786327#1 -896786327#1.48 -896786327#1.55 -896786327#1.60 -896786327#1.64 -896786327#1.68 -896786327#1.74 -896786327#1.124 -896786327#1.170 -896786327#1.205 -896786327#1.211 -896786327#0 877395784#22 877395784#22.56 904371492#0 904371492#0.68 -904371493#5 904286385#2 904286385#3 -951973457 904371492#5 904371492#6 904371490#4 904371489#0 671191682#0 671191682#1 -951973462#2 -951973460#1 -951973460#0 904371493#2 904371493#3 -671191681#2 -671191681#1 -951973436#2 -951973436#0 -951973436#0.3 -951973436#0.8 -877395784#25 -877395784#25.55 -952002224#7 -952002224#7.17 -952002224#7.71 -952002224#6 -952002224#5 -952002224#5.5 -952002224#4 -952002224#4.27 -952002224#3 -952002224#3.30 -952002224#3.48 -952002224#3.80 904286410#0 904286410#0.33 904286409#0 904286409#1 -951874861 904286402#2 951874858#0 -951874860#4 -951874860#3 -904286402#0 -904286410#2 -904286411#3 -904286411#2 -904286411#2.14 -951874848#1 -951874848#0 -952002224#1 896786337#4 896786337#5 896786337#5.11 896786337#6 896786337#7 896786337#8 896786337#8.8 -951887683 -951887684 -951887682#6 951887695#5 -951887700#19 -951887686#1 -951887686#0 -951887682#4 -951887682#3 -951887682#2 -951887682#2.37 -951887682#1 -951887682#1.2 -951887682#1.5 -951887682#0 -951887700#14 -951887700#12 -951887700#12.12 951961240#0 951961240#0.54 951961240#0.57 951961240#0.59 951961240#0.62 -951961245 951891772#0 -951891773 -951891771#0"/>
</vehicle>
<vehicle id = "veh7" type= "veh_passenger" depart="7210" >
<route edges =" 45342801#5 45342801#5.32 902433317#3 951421968#0 951421968#1 951421968#1.20 -951381446#1 -951381446#0 951368595#1 951368595#1.17 951368595#1.34 902433317#8 902433317#8.29 951368593#1 972507120#2 972507120#3 -951366780#1 -951366780#1.2 -951366780#1.41 951366779#0 951366779#1 45342812#1 45342811#2 45342811#2.66 45344273#23 45344273#23.11 -951379890#1 -951379890#1.37 -951379890#1.47 -951379889 -951379889.17 -951379889.23 -951379889.29 -951379889.36 -951379889.42 -897252873#1 -897252873#1.42 -897252873#0 -897252873#0.25 897252876#4 45344320#2 -45344329#7 45344327#0 45344331#4 45344320#4 45344320#5 45344320#5.26 45344320#6 45344320#6.8 -45344335#7 950400189 -897172091#12 -897172091#10 -950400190 -45344335#2 699875131#2 699875131#3 699875131#4 700254525#9 950235690#0 950235690#0.11 950235691#0 950235691#0.22 950400191 950400191.10 950400191.18 950400191.24 950400191.29 700254525#12 700254525#12.12 950235692#0 950235692#1 -950455053 950238177#0 950238177#0.24 950238177#0.27 950238177#0.31 950238177#0.61 950238177#0.78 950238177#0.94 950238177#1 950238177#1.12 950238177#2 950238177#2.39 950238177#2.59 950780326#0 950780326#0.30 950780326#0.63 950780326#1 950780326#1.17 950780326#1.24 950780326#1.29 950780326#1.45 950780326#1.86 950780326#2 45344278#3 45344278#4 45344278#5 -45344271#15 -950238184#4 -950238184#3 -950238184#3.42 -950238184#2 -950238184#2.9 -950238184#2.19 -950238184#2.27 -950780324#0 -950780324#0.30 -950238181#0 -950238180#4 -950238180#4.38 -950238184#0 -897252880#7 -897252880#7.31 45344271#11 45344271#12 950235723#0 950235723#1 -45344277#7 -45344277#6 -45344277#4 -45344277#3 -45344277#2 -45344277#1 -45344277#0 45344276#3 902433292#0 902433292#0.18 902433292#1 902433292#1.12 -903373125#2 950235713#0 950759344 950759344.25 950759344.36 950759344.47 950235714#1 950235714#2 950235713#2 950235713#2.43 -950759350#0 951132942#2 -950235711#3 950757964#0 -950757961 -950757962#0 -950757962#0.14 -950757962#0.18 -950757962#0.21 950757964#2 950757963#1 -45344271#24 950755152#0 950755152#0.10 950755152#0.22 950755151 950755151.35 950755151.45 950755151.55 45344271#26 45344271#26.18 45344271#27 950757969#0 950757969#1 950757969#1.14 950757969#2 950757969#2.4 950757969#2.8 950757969#3 950757967 951132942#6 -950757966#1 -950757965 -950235712#1 -950235712#1.23 -950235712#1.27 -951132942#8 -950235713#4 -950235713#4.13 -950235713#4.16 -950235713#4.19 -950235713#4.23 -950757960#0 -902433292#8 -902433292#7 -902433292#6 -902433292#5 -902433292#4 -902433292#3 -950235719#4 -950235719#3 -950235719#1 -950235719#1.22 -950235719#1.35 -950235719#0 -950235719#0.5 950235717#2 950235717#2.13 950235717#2.33 950235717#2.37 950235717#2.41 950235717#3 950235717#3.7 950235717#3.9 950235717#3.12 950235717#3.15 902822419#7 902822418 950235725#0 950235725#1 -950806855#1 -950806855#1.24 -950806855#1.29 -950806855#0 -950806855#0.17 -950806855#0.19 -950806855#0.21 -950806855#0.23 -950806855#0.25 -950235727#4 -950806856 -950806856.40 -950806856.46 -950806856.53 -950806856.64 950235725#4 950235725#5 950806853 -950235727#1 -950235727#1.45 -950235727#0 950641816#6 950641816#7 950641816#8 950641816#9 950641816#10 950641816#11 950641815#0 950641815#0.27 -950641814 -950238188#3 -950238188#2 950238186#0 950238186#1 950238186#2 -45344271#6 -45344271#6.46 -45344284#9 -45344284#8 -45344284#7 -45344284#7.68 -45344284#7.129 -45344284#6 -45344284#5 -45344284#4 950238192#5 950238192#5.42 950553577#0 950553577#0.25 -950553576 -45344283#2 -45344283#1 -45344283#1.3 -45344283#0 -45344282#0 -45344272#0 -897252880#9 950238178#0 950238178#1 950238178#3 950238179#0 950238179#1 45344273#38 45344273#38.38 45344273#38.50 45344273#38.62 -950235700#3 950235699#0 950235699#1 950235699#3 -950235692#3 950235697#0 950235697#2 950235697#3 -950235700#1 950235694#0 950235695#3 -45344336#5 -45344336#4 -45344336#3 45344283#4 45344283#5 -950553582#2 -950553582#2.27 -950553582#1 -950553582#1.2 -950553582#1.5 -950553582#1.66 -950553582#1.76 -950553582#1.84 -950553582#1.90 -950553582#1.96 -950553582#1.103 -950553582#1.114 -950553582#1.120 950553581#0 950553581#0.7 950553581#0.14 -700278833#5 -700278833#5.31 -700278833#5.45 950318421#0 950318421#0.10 950318421#0.18 950318421#0.29 950318421#0.39 -950318420 -950318420.14 -950318420.24 -950318420.38 -950318420.55 -950318420.72 -950318420.83 -950318420.94 45344283#8 45344283#9 45344283#10 45344283#10.15 45344283#10.46 45344283#10.69 45344283#10.88 45344283#10.150 45344283#10.196 45344283#10.260 45344283#10.377 45344283#10.468 45344283#10.514 670655885 670655885.12 896892975 971495602#12 971495602#12.26 971495602#12.77 951442813 951442812#0 -896786335#50 -896786335#49 -896786335#48 -896786335#48.15 -896786335#47 -896786335#46 -896786335#44 -896786335#44.9 -896786335#44.71 -896786335#43 -896786335#42 -896786335#42.22 -896786335#41 -896786335#40 908869238 908869238.11 -908869250#2 -908869250#2.29 -908869250#2.76 -908869250#2.143 908869244#0 908869243#0 908869242 908869242.15 908869242.31 -896786247#2 -896786247#2.13 -896786247#1 -908869234#0 -908869234#0.11 -908869250#0 -908869250#0.11 -908869250#0.41 -45378649#10 -45378649#10.20 -45378649#9 -45378649#9.7 -45378649#7 -45378649#7.4 908869241#0 908869241#0.15 908869241#0.77 908869241#1 908869241#1.31 -951355291 -951355291.22 -951355291.26 -951355291.31 -951355291.36 -951355291.41 -951355291.50 -951355291.55 -951355291.62 896786335#32 896786335#32.16 -876614662#9 -876614662#9.32 -951354772#1 -951354772#1.39 -951354772#1.50 -951354772#1.59 -951354772#0 -951354772#0.6 951354773#2 951354773#2.8 951354773#2.14 951354773#2.38 951354773#2.61 951354773#2.86 -951354771#1 -951355290 -951355290.28 -951355290.30 -951355290.31 -951355290.32 -951355290.33 -896893028#3 -896893028#3.26 896893016#0 896893017#0 -896893018#1 -896893018#1.27 -896893018#0 -877388728#13 -877388728#13.55 -896893014#1 -896893014#0 -896893014#0.9 -951998766#1 -951998766#1.58 -951998766#1.64 -951998766#1.69 -951998766#1.73 896892983#10 896892983#10.17 896892983#11 -951998772 -896893027#0 -896893027#0.51 -896893027#0.118 896786297#4 896786297#4.10 896786297#4.18 896786297#4.21 896786297#4.23 -896893005#4 -896893005#3 -896893005#2 -896893005#2.6 -877388728#10 -877388728#10.145 -896892998#4 -896892998#2 -896892998#2.10 -896892998#1 -896892992 -896892992.49 -896786307#2 -896786307#2.7 -896786307#1 951995496 951995496.11 951995496.15 951995496.18 951995496.22 951995496.29 -896786309#4 -896786309#4.39 -896786309#4.81 951988576#0 951988574#1 951988574#1.57 951988574#1.71 951988575#1 -896786309#1 896786305#0 896786305#0.8 896786305#0.17 896786308#2 896786308#2.17 877388976#1 877388976#1.12 877388976#1.51 877388976#1.72 -896786304#0 -896786304#0.49 896786308#6 896786308#6.25 896893013#5 896893013#5.3 896893013#5.5 896893003 896893004#2 896893004#3 896893004#3.24 896893004#4 896893002 896893002.42 896786335#23 896786335#23.11 896786335#24 896786335#26 896786335#27 896786335#27.8 896786335#28 896786335#29 896786335#29.12 45378649#0 45378649#0.36 -951354765#1 -951354765#1.60 -951354765#1.64 -951354765#1.67 -951354765#1.70 -951354765#1.74 -951354765#1.99 951354763#1 951358824#1 -896786265#5 -896786265#4 -896786265#4.59 -951995493#1 951354763#5 951995492#1 -896786265#0 896786266#11 896786266#11.13 909024250#0 909024250#1 -909024243#1 -909024243#1.11 -909024243#1.69 -909024243#1.72 -909024243#1.74 -909024243#1.78 951995495 896786335#19 -896893011#1 -896893011#0 -896893011#0.52 -896893013#2 896893010 896893010.28 896893010.97 -896893012#5 -896893012#5.11 -896893012#4 -896893007#1 -896893007#1.18 -896893008#1 -896893006 -896893012#2 -896893012#2.9 -896893012#1 -896893012#0 -896893012#0.11 -896786303#4 -896786303#4.22 -896786303#3 896786302#0 896786302#0.18 896786302#0.77 896786302#1 951983592#0 951983592#0.146 951983592#0.152 951983592#0.157 951983592#1 951983592#3 951983592#3.4 951983592#3.8 951983592#3.24 951983592#3.30 951983592#4 951983592#4.48 951983592#4.59 951983592#4.68 951983592#5 951983592#6 951983592#6.2 951983592#6.8 951983592#6.15 951983592#7 951930617#10 951930617#10.11 951930617#10.22 951930617#11 951930617#12 -896786309#7 -896786309#7.27 -896786309#7.77 -896786309#7.88 -896892996#1 -896892996#1.16 -896892996#1.37 -896892996#1.52 -896892996#1.86 896892997#0 896892995#1 896892995#1.18 -877388728#7 -877388728#5 -877388728#5.9 -877388728#5.30 -877388728#4 -877388728#4.18 -877388728#3 -877388728#3.29 896893023#0 896893023#0.34 896893021#13 896893021#13.24 896893021#13.85 951998769#0 951998769#1 896892989#1 896892989#1.36 -896786297#8 -951998767#0 896892988#1 896892988#1.46 896892988#1.49 896892988#1.52 896892988#1.56 896892987#1 896892987#1.38 896892987#1.45 896892987#1.49 896892987#1.52 896892987#1.58 896892987#1.74 896892987#2 896892987#2.13 896892987#3 -951998764#0 -951998764#0.32 -951998764#0.41 -951998764#0.52 896893025#7 896893025#7.15 896892986#0 951998763 -896892985#0 -896892985#0.10 896893025#10 -951998762#1 951349909#1 -876614662#3 -876614662#3.38 -951132945#3 -951349907#0 -896893025#12 -876614662#1 951998783#1 951998783#2 -951998785#1 -951998790 -896893023#6 -896893023#6.20 -896893023#6.24 -896893023#6.27 -896893023#6.30 -896893023#5 -896893023#5.8 -951998775 877388646#0 877388646#0.26 -896892989#4 -896892989#4.33 -896892989#4.88 951998768#0 -896893025#0 -896893019#3 -896893024#3 -896893024#2 -896893024#2.33 -896893024#1 -896893024#0 -951988586#0 -951988586#0.10 -896893021#11 -896893021#10 -896893021#9 -896893021#9.73 -952213570#2 -952213570#1 -896893020#0 -896893020#0.20 -896893020#0.43 -896893021#3 -896893021#3.18 -896893021#3.35 -951988616 -951988616.11 -951988616.32 -952248230#2 -952248230#1 -951988589 -951988589.30 -951988589.34 -951988589.37 -951988589.41 -951988590#3 -951988590#1 896893020#2 896893020#2.56 896893020#2.154 896893020#2.219 896893020#2.250 -951988591#2 -951988591#2.11 -951988591#2.25 -951988591#2.40 -951988592#0 -951988592#0.36 -951988592#0.38 -951988592#0.41 -951988592#0.44 -951988590#9 -951988590#9.14 -951988590#9.23 -951988590#9.30 -951988590#8 -951988594 -896786309#10 -896786309#10.7 -951988596#1 -951988596#0 -951988595#1 -951988595#1.5 -951988595#1.15 951988598#0 951988598#0.11 951988598#0.14 951988598#0.18 951988598#0.23 951988598#1 896786309#14 -951988600#1 -951988600#0 -951988600#0.43 -951988600#0.49 -951988600#0.52 -951988600#0.57 -951988602#0 -951988602#0.11 -951988602#0.36 951935274#5 951935274#5.4 951935274#5.13 951935274#5.22 951935274#5.58 951935274#5.68 951935274#5.76 -951988607#2 951988606#0 951988604#2 951988604#2.18 951988604#2.21 951988604#2.24 -951930625#1 -951930625#0 -951930625#0.6 -951930625#0.13 -951930625#0.21 -951930625#0.26 -951930625#0.32 -951930616#10 -951930616#10.3 -951930616#10.6 -951930616#10.9 -951930616#10.13 -951930616#10.15 -951930616#10.18 -951930616#10.26 -951930616#10.29 -951930616#10.31 -951930616#10.35 -951930616#9 951930634#0 951930679#0 951930679#0.32 951930679#0.34 951930679#0.37 951930679#0.41 951930679#1 951930679#1.53 951930679#1.56 951930679#1.59 951930679#2 951930635#0 951930635#1 -951930617#0 -896786309#24 -896786309#24.6 -896786309#22 -896786309#22.8 -951988604#4 951988605#0 951988605#1 -951988603#0 -896786309#18 -896786309#17 -951930620 951930617#6 951930617#7 951983611#0 951983611#1 951983611#3 -951983608#0 -951983608#0.19 -951983608#0.23 -951983608#0.26 896786310#8 896786310#8.5 896786310#9 896786310#9.40 896786310#9.54 896786310#9.61 -951983616#2 951983617#0 951983617#0.43 877398739#1 -951983587#1 -951983591 -896786311#9 -896786311#8 896786321#0 896786321#0.46 896786321#0.171 -951976012 -951976012.34 -951976012.37 -951976012.40 -951976012.44 896786321#3 896786321#3.48 896786321#3.103 896786335#9 -951976010#1 951976011#1 896786311#12 896786311#12.29 896786311#13 896786311#13.28 896786335#11 896786335#12 896786335#12.34 896786335#13 909024236#1 909024236#1.12 909024236#1.82 909024239#1 909024239#1.17 909024239#2 909024239#2.40 877398366#3 -951995475#3 -951995475#2 -951995475#1 -951995475#1.25 -951995475#0 -896786293#0 896786291#0 896786291#0.19 896786291#1 896786291#1.19 877398366#6 877398366#8 877398366#8.29 877398366#8.95 877398366#9 -904371462#2 -904371462#1 -904371462#1.14 -904371462#1.100 -877396860#8 -951995474 904371460#1 904371460#2 904371460#2.34 904371458#0 904371458#0.18 904371458#1 -877396860#4 -896786328#3 -896786328#3.70 -896786328#2 -896786328#2.49 -896786328#1 -896786328#0 -896786328#0.177 -877395784#20 951951639#0 951946803#0 951946795#1 -951946802 951951639#3 951951639#4 951951639#6 951951639#7 951951639#8 951951639#9 951951639#10 951946797 951946795#9 -951946796#1 951946804 951946804.28 951946804.31 951946804.34 951946804.37 951946795#11 951946795#11.34 951946795#11.40 951946795#11.45 896786337#10 896786337#10.21 -951887700#20 671756019#0 671756019#1 671756019#2 671756019#2.43 671756019#3 671756019#4 -951887700#18 -951887700#17 -951887700#17.17 -951887689 -951887688#0 951887687#1 951887687#1.5 951887687#1.11 -951961233#4 -951961233#3 -951961233#3.25 -951961233#3.30 -951961233#3.34 -951961233#3.39 -951878265#2 951878263#1 951878263#1.39 951878263#1.46 951878263#1.53 951878263#1.72 951878263#1.75 951878263#2 951878263#2.2 -951878266#4 -951878266#4.37 -951878266#2 -951878266#1 -951878266#1.39 -951878266#1.47"/>
</vehicle>
<vehicle id = "veh8" type= "veh_passenger" depart="7210" >
<route edges =" 951370989 951370989.40 951370989.47 951370989.53 951370989.56 951370989.62 951370989.64 951370989.67 -902433320#1 -902433320#0 902433321#2 -45342799#20 -45342797#4 -951368600#1 -951368600#0 45342809#1 -45342835#2 -45342835#1 -45342835#0 -45342797#0 45342834#2 45342809#3 -45342798#2 -45342798#1 45342840#0 -45342810#2 -671416444#2 671416443#0 671416443#1 -671416440 671416442#2 -45342838#1 -45342838#0 -45342810#0 45342809#5 45342809#6 45342809#7 45342809#8 45342809#9 -45342821#1 -45342821#1.44 -45342821#0 -45342803#3 45342820#0 45342820#1 -45342822#1 -45342822#0 -45342831#2 -45342831#0 -45342804#1 -45342804#0 45342808#2 45342805#0 45342805#0.20 45342805#1 45342805#1.19 951417479 -45342809#15 45342824#0 45342833#3 -951366786 45342824#3 45342824#4 45342825#2 45342828#0 45342828#1 45342828#1.100 -45344273#6 -45344273#6.40 -45344273#6.59 -951384598#3 -951384598#2 -951404491 -951404491.16 -951404491.28 -951404491.40 -951404491.51 -951384599#0 700249213#9 700249213#10 700249213#11 45342808#10 45342808#11 45342808#11.24 951417471 951417471.18 951417471.38 951370965#1 951370965#1.28 951370965#1.49 45344314#2 45344314#3 -45344315#2 -45344315#1 -45344315#1.25 897252869#1 897252861 -897252860#0 -897252868#2 -897252868#1 -897252868#1.11 -897252868#1.30 700249213#4 700249213#4.7 700249213#4.65 700249213#4.70 700249213#4.76 700249213#5 700249213#5.63 700249213#6 45344290#0 45344290#0.48 45344290#0.50 45344290#0.52 45344290#0.55 45344290#1 -45344292#3 -45344292#1 -951370977 45344288#2 45344295#1 45344295#1.21 45344295#1.34 45344295#1.62 45344295#2 45344295#2.63 45344295#2.112 897252857 897252858#2 -897252852#6 -897252852#6.26 -897252852#5 897252849 -897252850#2 -897252850#2.11 -897252850#2.29 -897252850#1 -897252850#1.5 -897252850#0 -897252852#1 -897252852#1.36 897252851 45344304#1 45344304#1.17 45344304#1.60 45344304#2 45344304#2.14 45344304#3 45344304#3.13 45344304#5 45344304#6 45344304#6.25 45344304#6.56 45344304#6.82 -951370973#1 951370972 951370971#0 951370971#1 951370970#2 -45344304#9 -45344305#1 -45344290#4 -45344290#3 -45344290#3.23 -45344290#3.33 -45344290#3.44 -951370976#1 -951370976#0 -951370976#0.11 -951370976#0.13 -951370976#0.16 -951370976#0.19 -951370976#0.21 -951370976#0.23 897252863#3 897252863#5 897252863#6 897252863#7 897252863#8 -951370968#0 -951370968#0.20 -951370968#0.23 -951370968#0.25 -951370968#0.28 -951370968#0.32 -951370968#0.36 897252862#2 897252862#2.16 897252864#0 897252864#1 897252864#3 -897252871 -897252870 -45344310#2 -45344310#1 951404484#0 951404484#0.58 951404484#0.86 951404484#0.91 951404484#0.94 -951404476 -951404476.16 -951404476.32 -951404476.50 -951404476.59 -951404476.68 -951404476.84 -951404476.93 -951404476.101 -951404476.106 -951404476.113 971495602#7 971495602#7.32 971495602#7.56 971495602#8 971495602#8.24 971495602#8.86 -313316104#6 -45378650#5 -45378650#5.11 -45378650#4 -45378650#3 -45378650#3.29 -45378650#2 -45378650#2.42 -45378650#2.62 -45378650#1 908846596#2 908846596#3 45378645#1 45378645#1.23 45378645#1.76 45378647#3 45378646#3 -908846598#1 -908846598#1.20 -908846598#1.40 -908846598#1.44 -908846598#1.67 -908846598#1.96 -908846598#1.126 -908846598#0 -908846598#0.31 908560901#2 908560901#2.40 908560901#3 908560901#4 908560901#4.8 951435501 951435501.56 908846595#0 908846595#0.61 908846594#0 908846594#1 908846594#1.37 -908846596#0 -908846596#0.31 908560901#7 908560901#8 908560901#8.23 908560901#8.56 -313316104#0 -313316082 -45378649#12 896786296#0 896786296#1 896786296#1.36 896786296#2 896786296#2.35 896786296#3 -896786255#1 -896786255#1.19 -896786255#1.69 951355294#0 951355294#0.41 951355294#1 951355294#1.19 951355294#1.22 951355294#1.23 951355294#1.24 951355294#1.25 951355294#1.27 951355294#1.28 951355294#1.31 951355294#1.41 951355294#1.42 951355294#1.43 951355294#1.44 951355294#1.45 951355294#1.47 -896786258#2 -896786258#2.22 -896786256 -896786256.31 -896786256.68 -896786256.122 -909024254 -909024254.11 -909024254.37 -951358819 -951358819.10 -951358819.14 -951358819.18 -951358819.25 -951358819.35 -45378665#8 909024255 909024255.12 909024255.40 909024255.70 896786266#4 896786257#2 896786257#2.28 896786257#2.57 896786257#3 896786257#3.14 896786257#4 909024248 909024248.50 45378665#5 45378665#5.9 -951995477 -951995477.15 -951995477.23 -909024286 -909024289#2 -909024288#1 -909024288#0 -877396033#5 -877396033#5.40 -896786286#3 -896786286#2 -896786286#2.18 -896786286#1 -896786286#1.14 -896786286#0 -896786286#0.12 -877398366#8 -877398366#8.18 -877398366#8.84 877398520#0 877398520#0.55 896786288#0 896786288#0.26 896786288#0.48 -896786291#0 -896786291#0.44 896786293#0 896786293#2 896786293#2.8 896786293#2.28 896786293#2.36 896786293#2.45 896786293#2.48 896786293#2.52 896786293#3 896786293#3.29 -909024240 -909024240.17 -909024240.35 -909024241#0 -909024241#0.4 896786257#6 896786257#6.8 896786257#6.44 896786257#6.53 896786257#7 896786257#7.17 896786257#7.37 896786257#7.44 896786257#7.49 896786257#7.54 -45378665#1 909024239#0 -909024236#1 -909024236#1.9 -909024236#1.78 -896786335#13 877398366#0 877398366#0.11 -909024237#0 951983583#1 -896786335#11 -896786335#10 -896786335#10.38 -896786335#9 -896786335#8 -896786335#8.39 -951976009#1 -951976009#0 -896786320#1 -877396172#5 -877396172#3 896786315#0 896786315#2 -951976005 -896786317#0 -896786316#2 -951930664#5 -877396172#0 -877396172#0.15 -896786313#2 -896786313#2.55 -951930663#1 -951930663#0 -877395784#11 -877395784#11.58 951946825#0 951946825#1 -951946816#4 -951946816#2 951946827 951946827.47 951946827.51 951946827.55 951946827.59 951946815#3 951946828 -951946787#4 -951946787#3 -951946787#2 -951946787#0 -896786337#17 -896786337#17.3 -951946832 -951946814#0 -951946812#1 -951946813 951946810#1 951946810#2 -896786337#14 -896786337#14.40 -896786337#14.111 -952365020 -952365021 -951878231#2 -951878231#1 -951878231#1.26 -951868611#0 -951951643#4 -951951643#3 -951951643#2 876509484#2 -951951642#1 -951951642#0 -951878263#5 -951878269#15 -951891772#2 -951891774 951891771#2 951878270#2 951878270#3 951878270#4 -951887656#2 951891765#1 -951887654#2 -951887654#1 -951887654#0 700825962#4 700825962#4.25 700825962#4.106 700825962#4.130 700825962#5 700825962#5.39 951891762 951887664#0 951887664#1 951887664#2 951887663#1 951887663#2 951887661#3 951878266#0"/>
</vehicle>
<vehicle id = "veh9" type= "veh_passenger" depart="10815" >
<route edges =" 951370989 951370989.40 951370989.47 951370989.53 951370989.56 951370989.62 951370989.64 951370989.67 -902433320#1 -902433320#0 902433321#2 -45342799#20 -45342797#4 -951368600#1 -951368603#1 951368601#0 951368601#1 -45342797#2 -45342797#1 -45342797#0 -45342834#1 -45342834#0 44740902#8 -45342798#6 45342813#0 45342817#0 45342817#1 -45342803#7 951370984#0 45342816#1 45342814#3 -45342803#5 -45342803#4 45342821#0 -45342822#2 -45342822#1 -45342832#1 -45342832#0 -45342804#2 -45342804#1 -45342843#3 45342803#0 45342803#1 -45342802#2 -45342802#1 671399046#2 671399046#2.23 -671399054#1 -671399054#0 671399058#1 671399058#2 -44740901#3 44740957#6 44740957#7 44740957#8 -44740895#3 -44740895#2 -44740895#2.69 44740972#0 951417475#0 974189220#4 44740942#0 44740901#1 -671399049#1 -671399049#0 -671399051#0 44740942#2 44740942#2.58 -874839172#0 -44740943 -313316091#20 951438760#0 951438760#1 -44740929#4 -44740929#3 -44740929#2 -44740929#1 -44740929#0 44740930#12 951421954 951421954.184 44740929#10 955813295#1 955813295#1.169 955410233 955410234 102277232#1 44739167#9 44739167#10 44740926#6 44740926#7 -951358806#1 951358805#0 951358805#1 44740928#2 44740927#13 44739167#12 -44740953#3 -44740953#2 -951438764 -951438764.47 -951438764.119 -313316091#14 -313316091#14.20 -671761561 -45378689#4 -45378689#2 45378688#0 45378655#0 45378640#0 45378640#1 45378658#3 -45378683#3 -45378683#2 45378655#2 45378655#3 -45378685#2 -45378685#1 45378654#0 45378654#1 45378657#4 -44739163#20 -44740949#2 -44740953#7 -44740953#6 951358801 -44740927#10 -44739163#17 -44739163#16 -44740981#1 44740983#0 44740983#1 -44740927#8 -951366798 -951366798.30 -951366798.39 -951366798.48 -951366798.59 -951366798.70 -951366798.78 -951366798.83 -951366798.89 951358797#3 -951358800#0 -44740918#1 44740931#0 -44740919#0 44740920#8 -313316091#0 -313316091#0.27 -313316091#0.72 -313316091#0.80 -971495601#9 -971495601#9.28 44740934#0 44740934#1 44740934#1.32 44740934#2 44740934#3 44740934#3.12 44740934#4 44740932#2 44740916#8 44740916#9 44740916#9.64 -909019783 -909019783.98 -971495601#3 -44740910#8 -44740910#7 909019782 909019781#1 44740932#4 44740932#5 44740932#6 44740932#7 313316100#7 313316100#8 313316100#8.72 -908560901#22 -908560901#22.11 -908560901#22.23 -908560901#21 -908560901#21.18 -908560901#21.74 -908560901#20 -908560901#20.10 -908560901#20.61 -908560901#20.115 -908560901#19 -908560901#19.77 -908560901#19.104 -896786299#0 -896786298 -45378665#19 -45378665#18 -951346845 -951346845.45 -951346845.46 -951346845.48 -951346845.49 -951346845.51 -951346845.52 -951346845.76 -951346845.78 -951346845.80 -951346845.82 -951346845.84 -951346845.103 -951346845.133 -951346845.138 -951346845.141 -951346845.144 -951346845.148 896786295#3 896786295#3.23 -951347814#1 -951347814#1.43 -951347814#1.47 951433464 951347813#1 951347813#1.31 951347813#1.37 -909024258#0 -909024259#1 -909024259#1.12 -909024259#0 896786295#5 -896786282#4 -896786282#4.21 -896786282#4.92 896786281#0 896786280#1 896786280#2 896786280#3 909024260 909024260.21 909024260.64 909024260.121 -951346848#0 -951346848#0.9 -951346848#0.18 -951346848#0.28 -951346848#0.36 -909024276#1 951433468 951433468.11 951433468.23 951433468.31 951433468.39 951433468.48 951433468.57 896786296#17 896786296#17.29 896786296#17.96 896786296#17.102 896786296#18 896786296#18.4 896786296#18.17 -44739144#24 -44739144#22 -44739144#21 -951346849 909778546#1 -951361609 903953324#1 903953324#1.22 702673217#0 909024262#0 909024261 909024261.37 702673217#2 896786289#3 -896786294#8 -909024279#5 -909024279#5.21 -909024280#1 -909024280#1.18 909024278#1 909024278#1.42 -896786294#6 -896786294#5 -896786294#5.6 -896786294#5.10 -896786294#5.13 -896786294#5.16 -896786294#5.19 -896786294#5.22 -896786294#4 -896786294#3 -896786294#3.26 -896786294#2 -896786294#2.7 -896786294#0 -896786294#0.13 877398366#17 877398366#17.93 -909024294#1 909024293#0 909024293#1 909024293#1.20 909024293#1.34 909024293#2 -909024292 -909024292.58 -896786290#3 -896786290#2 904286383#2 -904286380#0 -904286381#4 -904286372#1 -904286372#0 904286373#4 904286385#8 -951992348 904371486#1 904371486#2 904371486#4 904371486#4.3 -951973462#3 -951973462#3.3 -951973462#3.5 -951973462#3.8 -951973462#3.10 -951973462#3.15 -951973462#3.18 -951973462#3.21 -951973462#3.25 -951973462#3.31 -951973462#3.34 -951973462#3.38 -951973462#3.47 -951973462#3.53 -951973462#3.58 -951973462#3.69 -951973462#3.74 -951973462#3.79 671191682#2 904371493#3 904371493#4 904371493#5 904371492#2 -904371491 904286385#3 904286385#4 -904371490#4 -904371492#6 -904371456#3 -904371456#2 -904371456#2.22 -904371456#1 -904371456#0 -904371456#0.17 -671191680#0 -671191680#0.38 -671191680#0.44 -671191680#0.48 -671191680#0.53 -671191680#0.58 -671191680#0.63 -671191680#0.76 -896786327#0 -877395784#21 -877395784#21.14 -951951638#10 -951951638#10.18 951973434#1 951951639#3 951973426#1 951973426#2 -952002224#6 951973432#0 -951951638#7 -951951638#5 -951973430#0 -952002224#4 -952002224#4.27 951946798#0 951946798#1 951951639#10 951951639#11 951951639#13 -951946794#0 951946792#1 896786337#8 896786337#8.8 896786337#10 896786337#10.21 -951887700#20 -951887700#19 -951887686#1 -951887688#2 -951887688#1 951887689 -951887700#16 -951961233#4 951961244 951961244.37 951961244.40 951961244.43 951961244.47 -951961242#1 -951961242#0 -951961240#1 -951961245 951891772#0 -951891773 -951891771#0"/>
</vehicle>
<vehicle id = "veh10" type= "veh_passenger" depart="10815" >
<route edges =" 45342801#5 45342801#5.32 902433317#3 902433317#4 951368598#0 -951381446#0 951368595#1 951368595#1.17 951368595#1.34 902433317#8 902433317#8.29 902433317#9 951368594#0 951368594#1 951368594#2 972507120#3 -951421966 -951369743#0 -951369743#0.6 951369744#2 951369744#2.22 951369744#2.31 951369744#3 951369744#3.5 951369745#2 951369745#2.2 951369745#2.14 951369745#2.20 951369745#2.26 -951369742 -951369742.3 -951369742.6 -951369742.30 -951369742.33 -951369742.36 -951369742.38 -876567894#57 -876567894#57.2 -876567894#57.5 -876567894#57.13 -876567894#57.25 -876567894#56 -876567894#56.13 -876567894#56.24 950235708#0 950235708#0.34 950235708#0.40 950235708#0.44 950235708#0.49 950235708#0.79 950235708#1 -950235710#1 -950235710#1.25 -950235710#1.33 -950235710#1.40 -950235710#1.48 -950235710#1.67 -950235710#1.81 951381442 951381442.21 951381442.27 876567894#59 876567894#60 876567894#60.19 -951369737#3 -951369737#3.16 -951369737#3.20 -951369737#3.24 -951369737#3.29 -951369737#3.34 -951369737#3.39 -951369737#3.42 -951369737#3.56 -951369737#3.63 -951369737#3.67 -951369737#3.71 -951369737#2 -951369737#2.6 -951369737#2.17 -951369737#2.25 -951369737#2.35 -951369737#2.43 -951369737#2.48 -951369737#0 -951369737#0.5 -951369737#0.11 -951369746#1 -951369746#1.3 -951369746#1.9 -951369746#1.18 -951369746#1.26 -951369746#1.35 -951369746#0 -951369746#0.7 -951369748#0 -951369748#0.14 -951369748#0.17 -951369748#0.19 -951369748#0.22 951379886#1 951379886#1.14 951379886#2 951379886#2.14 951379886#2.19 951379886#2.22 951379886#2.25 951379886#2.28 -951369741#1 -951369741#1.20 -951369741#1.25 -951369741#1.30 -45344273#26 897252876#0 897252876#0.16 897252876#0.57 897252876#1 897252876#1.54 897252876#3 897252876#4 897252876#5 897252876#5.34 897252876#6 897252876#7 897252876#8 902433295#2 45344329#4 45344329#5 -951381435 45344331#3 -45344327#0 45344329#7 45344320#3 45344320#4 -897172091#13 -950400189 -45344335#5 -903341090 -897172091#10 -897172091#9 -897172091#8 -897172091#6 -951404496 -951404496.25 -951404496.29 -951404496.31 -951404496.34 -951404496.36 897252883#1 699875130#3 699875130#3.37 -897172091#0 -45344294#6 -45344294#6.9 -45344294#6.25 -45344294#5 -45344294#5.7 -951370959 -951370959.20 -951370959.22 -951370959.23 -951370959.27 -951370959.28 -951370959.29 -951370959.30 -951370959.31 897252858#0 951370960 -951370961#0 897252852#6 897252852#6.19 897252858#3 -45344286#12 -45344286#11 -45344286#9 -45344286#9.15 -45344286#9.41 -45344286#9.67 -45344286#8 -45344286#7 -702632122#4 -702632122#4.41 -702632122#4.57 -702632122#4.62 -702632122#4.67 -702632122#4.71 -702632122#4.73 -702632122#4.77 -702632122#3 -951384601#1 951384600 -702632123#2 -702632123#1 -702632123#1.4 -702632123#0 45344272#13 45344272#13.4 45344272#13.35 45344298 896892974 971495602#11 971495602#12 971495602#12.26 971495602#12.77 951442813 951442812#0 -896786335#50 -896786335#49 -896786335#48 -896786335#48.15 -951354780 -951354780.15 -951354780.24 -896892981#10 -896892981#10.8 -896892981#9 -896892981#8 -896892981#8.18 -896892981#8.50 -896892981#8.78 -951358829#1 -951358829#1.27 -951358829#1.80 950260764#0 950260764#0.14 950260764#0.20 950260764#0.27 950260764#0.78 950260764#0.85 950260764#0.90 950260764#0.94 950260764#0.98 950233984#2 950233984#2.61 -950233986#8 -950233986#8.2 -951350560 950260764#3 -950233986#2 951132945#0 951132945#1 951132945#2 951132945#3 876614662#3 876614662#3.4 -951349909#1 951998762#1 896893025#11 896893025#11.31 896893025#12 896893025#13 896893025#13.22 -950260765#10 950233978#0 950233978#0.36 -950264442 950233974#1 950233974#1.20 -952178397#3 -952178397#2 -952178397#1 952248245 952248245.28 952248245.49 952248245.71 952248245.99 952248245.133 -952216032#1 -952216032#0 -952216032#0.13 952213575#9 952213575#9.39 952213575#9.47 952213575#9.52 952213575#9.55 952213575#9.60 -951998789 -951998789.89 -951998789.91 -951998789.95 -951998789.98 -951998787#0 -951998787#0.10 -951998787#0.14 -951998787#0.18 -951998787#0.21 951998783#2 951998783#3 896893025#9 896893025#9.39 896892985#0 896892985#0.36 -951998763 896892986#1 896892986#1.7 896892986#1.21 896892986#2 896892986#2.44 896892986#2.82 896892986#3 -896892983#8 -896892983#7 -896892983#6 -951349907#3 -951349907#2 -951349907#2.14 -951349907#2.28 -951349907#2.40 -951349907#2.47 -951349907#2.56 951349909#3 951349909#5 951349909#5.10 951354777 -951350966#2 -951350966#2.8 -951350966#2.10 -951350966#2.12 -951350966#2.14 -951350966#2.16 -951350966#2.19 -951350966#2.59 -951350966#2.61 -951350966#2.63 -951350966#2.64 -951350966#2.66 -951350966#2.78 -951350966#2.82 -951350966#2.87 -951350966#2.94 -951350965 950233986#5 950233986#5.1 950233986#5.5 951350964 -951350966#0 951350967#1 951350967#1.12 951350967#2 896892981#3 896892981#4 896892981#5 951349912#0 951349912#0.14 951349912#0.18 951349912#0.25 951349912#0.33 951349912#0.69 951349912#0.72 951349912#0.74 951349912#0.76 951349912#1 951349912#1.12 951349912#1.14 951349912#1.16 951349912#1.19 -896786335#44 -896786335#44.9 -896786335#44.71 -896786335#43 -896786335#42 -896786335#42.22 896892983#0 896892983#0.10 896892983#1 896892983#1.19 896892983#2 896892983#2.46 896892983#3 896892983#3.35 896892982#0 896892982#0.29 -951349921#5 -951349921#5.15 -951349921#5.17 -951349921#5.20 -951349921#5.23 -951349921#5.25 -951349921#5.32 -951349921#5.34 -951349921#5.37 -951349921#5.39 -951349921#5.42 951349920 951349920.8 951349920.12 951349920.15 951349920.20 951349920.60 951349920.65 951349920.69 951349920.73 951349920.77 -896786335#37 -896786335#36 -896786335#34 -908869252#3 -908869252#3.7 -908869252#3.13 -908869252#3.35 -908869252#3.57 -908869252#3.88 -908869252#3.90 -908869252#3.94 -908869252#1 -908869252#0 -908869252#0.17 -896786335#30 -896786335#29 -896786335#29.17 -896893017#1 -896893018#1 -896893018#1.27 -896893018#0 877388728#14 -896786335#24 -896893004#5 896893002 896893002.42 -896786335#22 -896893013#7 -896893013#7.29 -896893013#7.87 -896893013#6 -896893013#6.15 896893003 951995485 -896786307#9 -896786307#9.12 -896786307#9.63 -896786307#9.67 -896786307#9.69 -896786307#7 -896786307#7.13 -896893000 -896893000.18 -896893000.45 -896786308#3 -896786308#3.7 -896786308#2 -896786308#2.11 -896786308#1 -896786308#1.17 896786307#0 896786307#0.31 896786307#1 896786307#2 896786307#2.26 896786307#4 896786307#4.28 -896892993 -896892993.12 -896892993.38 -896892998#1 -896892998#0 -896892998#0.14 -896892994#0 896786310#2 896786310#2.33 896786310#2.46 896786310#3 951983615 951983615.81 951983615.94 951930617#12 896786309#8 896786309#8.22 896786309#10 896786309#10.113 896786309#11 896786309#13 -951988598#1 951988599 -951988597#0 -951988596#0 951988595#2 -951930617#7 -951930617#6 951930620 -896786309#16 -896786309#16.7 -951988600#1 -951988607#3 951935274#6 951988604#0 -951988603#1 -951988603#0 -951930621 -951930617#4 951930618#0 951930618#0.26 951930618#0.29 951930618#0.32 951930618#0.35 951930618#1 -951983608#2 -951983608#1 -951983611#3 -951983610 -951983592#5 896786310#7 896786310#7.4 896786310#7.13 896786310#7.40 896786310#7.52 896786310#7.60 896786310#7.68 896786310#7.74 896786310#8 896786310#8.5 877389028#0 877389028#0.17 877389028#1 877389028#1.12 877389028#1.31 -896786310#13 -951983598#2 -951983598#2.26 -951983598#2.31 -951983598#2.37 -951983598#2.50 -951983598#2.53 -951983598#2.56 -951983598#2.60 -951983598#2.63 -951983598#2.66 -951983617#1 -951983617#1.8 -951983617#1.10 -951983617#1.12 -951983617#1.15 -951983617#1.42 -951983617#1.46 -951983617#1.49 -951983617#1.52 -951983617#1.58 -951983617#1.61 -951983617#1.64 -951983617#1.81 -951983617#1.86 -951983617#1.92 -951983617#1.108 -951983617#1.112 -951983617#1.116 -951983617#1.163 -951983617#1.166 -951983617#1.169 -951983617#1.173 -877398739#0 -877398739#0.4 -877398739#0.7 -877398739#0.11 -877398739#0.19 -877398739#0.23 -877398739#0.27 -896786310#10 -896786310#10.4 -896786310#10.15 -896786310#10.32 -951983616#2 -951983616#1 -951983619 -951983619.37 -951983619.41 -951983619.43 -951983619.47 -951983620#0 951983592#1 951983592#3 951983592#3.4 951983592#3.8 951983592#3.24 951983592#3.30 -951988579 951988578#1 -951988576#1 -951988576#0 -896786309#2 -896786309#2.4 -896786309#2.65 -896786309#1 -896786309#0 896786304#2 896786300#0 896786300#0.23 896893013#0 896893013#0.10 896893013#0.59 896893013#1 896893013#1.26 896893010 896893010.28 896893010.97 -896893012#5 -896893012#5.11 -896893012#4 -896893007#1 -896893007#1.18 -896893008#1 -896893008#0 896786300#2 896786300#2.40 896786300#2.70 -896893012#1 -896893012#0 -896893012#0.11 -896786303#4 -896786303#4.22 -896786303#3 896786302#0 896786302#0.18 896786302#0.77 896786302#1 896786304#6 896786304#7 896786304#7.11 896786304#8 896786304#8.15 896786304#9 896786304#9.20 896786311#11 896786311#11.62 -951976011#1 951976010#1 -896786322 -896786322.14 -896786322.21 -896786323#1 896786325#4 896786325#4.12 -896786335#4 -896786335#4.18 -896786335#3 -896786335#3.10 -896786335#2 -896786335#1 -896786335#1.14 -896786335#0 -951946803#2 951946816#14 951946795#0 951946795#0.4 951946795#0.7 951946795#0.9 951946795#1 951946795#2 951946795#3 951946795#4 951946795#6 951946795#7 951946795#9 951946795#10 951946795#11 951946795#11.34 951946795#11.40 951946795#11.45 -951887683 -951887684 -951887682#6 -951887682#5 951887686#0 951887686#1 -671756019#4 -951961235 951961234#1 -951961233#1 -951961233#0 -951961233#0.33 -951961233#0.38 -951961233#0.43 -951961233#0.48 -876509484#8 -876509484#8.19 951961251#0 951961247#0 951961247#1 951961247#1.3 951961249#0 951961249#1 951961249#1.17 951961249#1.19 951961249#1.21 951961249#1.24 -951961255 -951961255.19 -951961255.22 -951961255.25 -951961255.27 951961248#1 -876509484#6 -876509484#6.3 -876509484#6.8 -876509484#6.12 -876509484#6.15 951878264#0 951878264#0.74 951878264#2 -951878263#3 -951878266#4 -951878266#4.37 -951878266#2 -951878266#1 -951878266#1.39 -951878266#1.47"/>
</vehicle>
<vehicle id = "veh11" type= "veh_passenger" depart="10815" >
[...]
</vehicle>
<vehicle id = "veh18" type= "veh_passenger" depart="21630" >
<route edges =" 951370989 951370989.40 951370989.47 951370989.53 951370989.56 951370989.62 951370989.64 951370989.67 -902433320#1 -902433320#0 902433321#2 45342799#21 45342809#0 45342809#1 45342809#2 45342809#3 45342798#3 45342798#4 45342798#5 45342813#0 45342813#1 45342813#2 -45342814#1 44740902#11 44740902#12 -671399056 671399058#2 -44740901#3 44740957#6 951417473 44740896#1 44740896#2 44740896#3 -44740959#1 -44740959#0 44740895#3 974189220#3 951417475#1 -671399049#1 -671399049#0 -671399051#0 -44740942#1 -44740942#0 974189220#5 902433296 44740967#0 -44740929#6 -44740929#5 -44740929#4 672215965#0 672215965#0.11 672215965#1 -44740922#0 -313316091#16 45378639#0 45378639#0.48 45378639#1 45378639#1.38 45378639#2 45378639#2.25 45378639#2.39 45378639#3 951439124 951439124.12 951439124.17 951439124.21 951439124.25 951439125#1 45378641#1 45378641#1.76 -45378640#3 -45378683#4 -45378683#4.30 -45378683#4.33 -45378683#4.36 -45378683#4.38 -45378683#4.41 -45378683#4.68 -45378683#4.75 -45378683#4.81 -45378683#4.88 -45378658#3 -45378640#1 -45378687#1 -45378687#0 -45378686#0 -45378689#2 -45378689#1 -45378682#1 45378691 -45378690#0 -45378690#0.32 -313316091#11 951438765 44740948#1 -44740940#1 -44740940#0 44740953#3 -44739167#12 -44739167#11 -44739167#10 44740930#8 44740930#9 44740923#0 44740989#1 44740922#7 44740922#8 955410234 102277232#1 102277232#2 102277232#2.138 102277232#3 102277232#4 102277232#4.80 102277232#4.133 102277232#4.154 102277232#5 102277232#6 672803221 672803221.14 672803221.21 672803221.29 672803221.35 672803221.40 896892969#12 44740930#0 44740930#0.11 44740930#1 44740930#2 -951346853 -44740939#0 951358794#1 44740935 -44740920#1 -44740920#0 44740930#4 44739156#14 44739156#15 44740985#0 44740987 -44740927#6 -951358798#1 -951358798#1.14 -951358798#0 -951358798#0.10 -951358798#0.14 -951358798#0.17 -951358798#0.19 -951358798#0.21 -951358798#0.22 -951358798#0.24 -951358798#0.36 -951358798#0.39 -951358798#0.41 -951358798#0.42 -951358798#0.45 -951358798#0.47 951366797 951366797.33 951366797.34 951366797.36 951366797.38 951366797.40 951366797.54 951366797.60 951366797.64 951366797.69 951366797.70 951366797.72 951366797.74 951366797.75 951358797#2 951358797#2.23 951358797#3 -951358800#0 -44740918#1 44740931#0 44740931#1 -313316091#1 -313316091#1.32 -313316091#0 -313316091#0.27 -313316091#0.72 -313316091#0.80 45340579#18 45340579#18.164 45340579#19 45340579#19.12 45340579#19.84 909019791#0 909019791#1 909019791#2 44740916#6 -909019789#0 -909019789#0.59 -909019789#0.61 -909019789#0.64 -909019789#0.68 44740933#1 909019787 -44740932#4 -44740932#3 -44740932#2 -44740934#4 -44740934#3 -44740934#3.33 -909019780#1 -909019780#0 668599376#1 668599376#2 668599376#2.6 -668599375#0 44740916#11 -971495601#6 -971495601#5 -971495601#3 -971495601#1 -971495601#0 -313316086 -44739144#26 -903953334#9 -903953334#9.24 -903953334#9.50 -903953334#9.58 -903953327 -903953327.7 -903953327.18 -903953327.71 903953326#1 -903953325#3 909778546#0 909778546#1 909778547#2 -903953325#1 903953324#0 903953324#1 903953324#1.22 44739144#19 44739144#19.50 44739144#20 44739144#21 -896786294#12 -896786294#12.19 -896786294#12.25 -896786294#12.30 -896786294#12.36 -896786294#12.41 -896786294#11 -896786294#11.13 -896786294#10 -909024270 -909024270.74 -909024270.101 -909024277#0 909024279#4 909024279#4.20 -909024280#1 -909024280#1.18 -909024280#0 -896786295#10 -896786271#2 -896786271#2.29 -896786271#1 -896786271#0 -896786272#0 -896786279#0 -896786279#0.19 909024281 909024281.8 896786270#1 -951421977 896786268#3 896786295#13 -896786294#5 -896786294#5.6 -896786294#5.10 -896786294#5.13 -896786294#5.16 -896786294#5.19 -896786294#5.22 -896786294#4 -909024256#1 -909024256#1.22 -909024256#1.80 -896786277#3 -896786277#2 -896786277#0 877398366#16 877398366#17 877398366#17.93 877398366#18 877398366#19 877398366#20 877398366#21 -44739144#16 -44739144#15 -909024265#3 952002225#1 -877396860#21 -877396860#20 -877396860#20.1 -877396860#18 -877396860#18.14 909024294#0 909024294#0.52 909024293#0 -909024290 -909024290.32 -877396860#16 904286386#2 904286386#3 904286386#3.9 904286386#3.31 904286386#4 904286386#4.19 -904371469 904371473#3 -904286388#0 904286386#7 -671191683#1 -671191683#1.8 -671191683#1.21 951973451#0 -951973456#1 -951973456#0 -904286387#2 -904286387#2.12 -904286387#1 951973452#1 951973454 951973453#1 -951992361 -904371488#6 -904371488#5 -904371488#4 -904371488#2 -904371488#2.8 -904371488#2.11 -904371488#2.18 -904371468 -904371468.19 -904371468.25 -904371468.28 -904371468.32 -904371468.43 904286384#0 904286384#1 904286384#1.16 904286384#2 904286384#2.14 -877396860#14 -877396860#14.23 -896786290#2 -896786290#1 -896786290#1.17 -904286381#6 -951992355 904286375#0 -904286372#0 904286373#4 -904286385#6 951973468#1 951973468#2 951973468#2.24 951973468#2.27 951973468#2.29 951973468#2.32 -904371490#0 -951973470#1 -951973470#1.3 -951973470#1.6 -951973470#1.10 -951973471#4 -904371456#2 -904371456#2.22 -951973471#1 -951973471#0 -671191680#1 -671191680#1.13 -671191680#0 -671191680#0.38 -671191680#0.44 -671191680#0.48 -671191680#0.53 -671191680#0.58 -671191680#0.63 -671191680#0.76 -896786327#0 -877395784#21 -877395784#21.14 -951951638#10 -951951638#10.18 951973434#1 951951639#3 951973426#1 -951951638#8 -951951638#7 -951951638#5 -951951638#4 -951951638#3 -951951638#2 -951946794#1 -951946794#0 951946792#1 896786337#8 896786337#8.8 896786337#10 896786337#10.21 -951887700#20 -951887695#5 -951887682#5 951887686#0 951887686#1 -951887700#18 -951887690 -951887688#1 951887689 -951887700#16 -951887700#15 -951887700#14 -951887679#2 951887680 -951887678#1 -951887678#0 -951887674#2 -951887674#1 -951887674#1.5 -951887674#1.8 -951887674#0 904196453#11 -951887667#7 951887672#2 951887672#3 -951887671#1 -951887671#0 951887668#1 904196452#7 904196452#8 904196452#8.23 904196453#13 951887700#7 951887700#7.21 951887700#7.25 951887700#8 951887700#8.5 951887700#8.7 951887700#8.11 951887700#10 951887700#11 951961240#0 951961240#0.54 951961240#0.57 951961240#0.59 951961240#0.62 -951961245 951891772#0 -951891773 -951891771#0"/>
</vehicle>
<vehicle id = "veh19" type= "veh_passenger" depart="21630" >
<route edges =" 45342801#5 45342801#5.32 902433317#3 951421968#0 951421968#1 951421968#1.20 -951381446#1 951368598#1 -45344271#32 951368595#0 951368595#1 951368595#1.17 951368595#1.34 902433317#8 902433317#8.29 951368593#1 972507120#2 972507120#3 -951369746#4 -951369746#4.24 -951369746#4.27 -951369746#4.29 951369745#0 -951381440 951369737#2 951369737#2.6 951369737#2.11 951369737#2.19 951369737#2.29 951369737#2.37 951369737#2.48 -951369740#1 -951369740#1.11 -951369740#1.14 -951369740#1.18 -951369740#1.22 -951369740#1.28 -951369740#1.32 -951369740#1.36 -951369740#1.40 -951369740#1.44 -951369740#1.64 -951369740#0 -951369740#0.4 -951369740#0.11 -45344273#26 897252876#0 897252876#0.16 897252876#0.57 897252876#1 897252876#1.54 -45344336#9 -45344336#9.10 -45344336#9.61 -45344336#9.126 -45344336#9.147 -950455054 -45344320#5 -45344320#5.17 -897172091#13 -950400189 -950235691#2 -950235691#2.50 -950235691#1 -950235691#0 -950235691#0.4 950235690#1 -45344335#3 -45344335#2 -45344335#1 -950235689#2 950400194#2 699875131#3 -950400192#1 -950400192#0 950400193#1 -950400194#0 950400195#2 950400195#2.6 -45344297#0 -45344297#0.11 699875130#3 699875130#3.37 -897172091#0 -45344296#0 -45344296#0.92 -45344296#0.150 -901885452#0 -897252884#0 -45344329#1 -45344329#0 45344291#3 45344291#3.27 45344291#3.54 45344291#3.63 45344291#3.68 45344291#3.139 -951370958 45344288#1 45344288#1.10 45344288#1.64 45344288#1.123 45344288#1.180 45344288#2 -45344295#0 951384595#0 951384595#0.37 951384595#0.57 951384595#0.95 951384595#0.97 951384595#0.100 951384595#1 951384595#1.2 951384595#1.4 45344290#1 45344292#4 700249213#5 700249213#5.63 -897252869#3 -897252868#4 -897252868#3 -897252868#3.15 -897252868#2 -45344314#4 -45344314#4.42 -45344314#3 700249213#0 951439195 -897252867#0 -897252867#0.6 -897252867#0.24 -897252867#0.52 -897252867#0.59 700249213#2 700249213#3 -897252868#0 -897252868#0.12 -897252868#0.33 -897252868#0.71 -897252863#5 -951370963 951370970#2 45344304#10 -897252863#0 -897252863#0.7 -897252863#0.15 45344290#4 -45344305#0 45344295#2 45344295#2.63 45344295#2.112 -45344294#1 -45344294#0 -45344304#5 -45344286#12 -45344286#11 951404497 951404497.20 951404497.26 951404497.33 951404497.38 951404497.43 -897252855#0 -45344287#0 -45344287#0.5 -45344287#0.14 -45344286#7 -702632122#4 -702632122#4.41 -702632122#4.57 -702632122#4.62 -702632122#4.67 -702632122#4.71 -702632122#4.73 -702632122#4.77 -702632123#3 -702632123#2 -702632123#1 -702632123#1.4 702632122#0 702632122#0.6 702632122#0.10 702632122#0.14 702632122#0.18 702632122#0.49 702632122#0.55 702632122#0.60 702632122#0.66 702632122#0.72 702632122#0.90 702632122#0.93 702632122#0.96 702632122#0.98 702632122#0.100 702632122#0.108 702632122#0.114 702632122#0.117 702632122#0.121 702632122#0.128 702632122#1 702632122#1.17 702632122#1.20 702632122#1.23 702632122#1.27 702632122#1.31 702632122#1.38 -951440588 -951440588.7 -951440588.10 -951440588.13 -951440588.16 -951440588.21 -951440588.26 -951440588.30 -951440588.35 -951440588.39 -951440588.44 -951440588.72 -951440588.82 -951440588.90 -951440588.97 -951440588.103 -951440588.117 -951440588.121 -951440588.124 -951440588.126 -951440588.135 -951440588.140 -951440588.146 -951440588.151 -951440588.155 -951440588.159 -951440588.175 -951440588.198 -951440588.205 -951440588.210 -951440588.231 -951440588.236 -951440588.241 -951440588.245 -45344286#1 -45344286#1.19 -45344286#0 -45344307 -951441961 971495602#10 971495602#10.24 971495602#10.91 971495602#10.136 971495602#10.205 971495602#10.291 971495602#10.337 971495602#10.378 971495602#11 971495602#12 971495602#12.26 971495602#12.77 951442813 951442812#0 -896786335#50 -896786335#49 -896786247#9 -896786247#9.8 -896786247#9.17 -896786247#9.75 -896786247#9.157 -951358828 -951358828.17 -951358828.20 -951358828.23 -951358828.27 -951358828.32 -951358828.41 -951358828.45 -951358828.48 -951358828.51 -951358828.55 -951358828.58 -951358828.60 -951358828.63 -896786335#44 -896786335#44.9 -896786335#44.71 -896786335#43 -896786335#42 -896786335#42.22 896892983#0 896892983#0.10 896892983#1 896892983#1.19 -951421976 896892982#2 -896786335#39 -896786335#39.27 -896786335#37 -896786335#36 -951349917#1 -951349917#1.14 -951349917#1.29 -951349917#1.41 -951349917#1.59 -951349918 876614662#9 876614662#9.52 -896786335#32 -896786335#32.17 -896786335#31 -896786335#31.22 -896786335#30 -896893028#5 -896893028#4 -896893028#4.22 -896893028#3 -896893028#3.26 -896893028#1 -896893028#1.14 -896893028#0 -896893028#0.19 -877388646#5 -877388646#5.83 -951998772 896893027#1 896893027#1.21 -896893026#1 -896893026#1.16 -896893026#1.19 -896893026#1.21 -896893026#1.33 -896893026#1.37 -896893026#1.40 -896893026#0 -896786297#6 -896786297#6.39 -896786297#5 -896786297#5.15 -896893005#4 896893015#0 896893015#1 896893015#1.26 896893015#2 896893015#3 -896893018#0 -877388728#13 -877388728#13.55 896893004#0 896893004#2 896893004#3 896893004#3.24 896893004#4 896893004#5 -896786335#23 -896786335#23.44 -896786335#22 -896786335#21 -896786335#21.41 -896893011#1 -896893011#0 -896893011#0.52 -896893013#2 -896893013#1 -896893013#1.7 -896893009 -896893009.79 -896893012#4 -896893012#3 -896893012#2 -896893012#2.9 896786300#3 896786300#3.17 -896786335#14 -896786335#14.27 -896786335#13 877398366#0 877398366#0.11 -909024237#0 -951983583#0 -951983583#0.24 -951983583#0.28 -951983583#0.32 -951983583#0.38 -877396860#0 -877396860#0.8 -877396860#0.28 -896786335#10 -896786335#10.38 -951976010#1 -951976011#0 896786321#2 -896786320#3 -896786320#3.5 -896786320#1 -896786320#0 896786315#2 -951976005 896786317#1 896786317#1.17 896786317#2 896786317#2.28 896786317#3 896786317#3.44 -896786335#3 -896786335#3.10 -896786335#2 951976001#0 951976001#1 -951976000#3 -951930662#2 -951930663#0 877395784#12 -951946824 -951946816#7 -951946820#1 -951946821#2 -951946821#1 951946823 951946816#10 951946817#1 951946817#2 951946817#3 951946817#4 951946817#5 951946833#4 951946833#5 951946833#6 951946833#7 -951946834#1 -951946837#2 -951946805#5 -951946805#4 951946836 -951946835#4 951946805#1 951946805#1.40 951946805#1.44 951946805#1.47 951951632#0 -951951634#1 -951951634#1.9 -951951634#1.13 -951951634#1.16 -951951634#1.20 -951951634#0 951946816#13 951946816#13.22 951946816#13.26 -951946803#1 -951946803#1.55 -951946803#1.59 -951946803#1.61 -951946803#1.64 -951946803#0 951951639#1 951946802 951946795#2 -951946801 951951639#6 951946800#1 951946795#4 951946795#6 951946795#7 951946795#9 951946795#10 951946795#11 951946795#11.34 951946795#11.40 951946795#11.45 -951887683 -951887684 -951887682#6 951887695#5 671756019#0 671756019#1 671756018 -876509484#8 -876509484#8.19 951878263#0 951878263#0.8 951878263#0.15 951878263#1 951878263#1.39 951878263#1.46 951878263#1.53 951878263#1.72 951878263#1.75 951878263#2 951878263#2.2 -951878266#4 -951878266#4.37 -951878266#2 -951878266#1 -951878266#1.39 -951878266#1.47"/>
</vehicle>
<vehicle id = "veh20" type= "veh_passenger" depart="21630" >
<route edges =" -45342801#4 -45342801#3 903341082#0 903341082#0.10 -672813677#4 -672813677#4.16 -672813677#2 -672813677#1 -672813677#1.10 -672813677#1.22 -672813677#0 -672813677#0.12 -672813677#0.41 951370988 951370988.6 951370988.11 951370988.16 902433317#6 -951368597 45342799#26 45342799#27 45342799#27.15 45342799#27.20 45342799#27.25 45342799#27.36 972507120#0 -903341083#3 -903341083#2 -903341083#1 -951368605#2 -951368605#1 -951368605#0 45342811#1 45342811#2 45342811#2.66 45344273#23 45344273#23.11 45344273#24 -897252873#2 -897252873#1 -897252873#1.42 -897252873#0 -897252873#0.25 897252876#4 897252876#5 897252876#5.34 -45344322#2 951440589 951440589.20 951440589.22 951440589.24 951440589.26 951440589.29 951440589.45 951440589.47 951440589.49 951440589.52 -45344322#0 -45344273#18 -45344273#18.17 -45344273#17 -45344273#17.20 -45344273#17.31 -45344273#16 -45344273#16.5 -45344273#16.30 -45344273#14 -45344273#14.32 -45344273#13 -45344273#12 -45344273#11 -45344273#10 -45344273#10.42 -45344273#9 -45344273#8 -45344273#8.10 -45344273#7 -45344273#7.22 -45344273#6 -45344273#6.40 -45344273#6.59 -45344273#5 -45344273#5.6 -45344273#5.15 -45344273#4 -45344273#4.8 -45344273#4.37 -45344273#3 -45344273#3.6 -45344273#3.14 -45344273#3.31 -45344273#3.48 -45344273#2 -45344273#2.6 -45344273#2.24 -45344273#1 -45344273#1.7 -45344273#0 -897252881 -45378637#10 -45378637#9 -951404484#10 -951404484#9 -951404484#9.20 -951404484#8 -951404484#6 -951404484#5 951404481 45378639#10 45378639#11 45378639#12 45378639#12.8 -45344310#1 -45344310#0 -45344310#0.10 -45344310#0.18 -45344310#0.30 -45344310#0.41 -45344310#0.52 971495602#8 971495602#8.24 971495602#8.86 45340579#6 -908560887#8 -908560887#8.9 -908560887#8.22 -908560887#8.29 -908560887#8.34 -908560887#8.39 -908560887#8.43 -908560887#8.49 -908560887#8.57 -908560887#8.62 -908560887#8.67 -908560887#8.71 -951404467#1 -951404467#1.22 -951404467#1.27 -951404467#1.32 -951404467#1.35 -951435496#1 -951435496#1.16 -951435496#1.17 -951435496#1.18 -951435496#1.19 -951435496#1.20 -951435496#1.22 -951435496#1.27 -951435496#0 -951435494 -951435494.8 -951435494.19 -951435494.25 -951435494.33 -951435494.43 -951435494.50 -951435494.55 -951435494.60 -951435494.65 -313316104#4 -313316104#4.4 -313316104#4.18 -313316104#4.31 -313316104#4.41 -313316104#4.56 -313316104#3 -313316104#2 -313316104#2.13 -313316104#2.35 -313316104#2.44 -313316104#1 -313316104#0 -313316082 -45378649#12 896786247#0 896786247#0.38 896786247#1 -908869244#2 -908869244#2.9 -908869244#0 -908869250#1 -908869250#0 -908869250#0.11 -908869250#0.41 -45378649#10 -45378649#10.20 -45378649#9 -45378649#9.7 -45378649#7 -45378649#7.4 908869241#0 908869241#0.15 908869241#0.77 -908869239 -908869239.8 -908869239.11 -908869239.13 -908869239.15 -908869239.18 951354762#0 951354762#0.9 951354762#0.12 951354762#0.15 951354762#0.18 951354762#0.94 951354762#0.96 951354762#0.97 951354762#0.99 951354762#0.100 951354762#0.102 951354762#0.106 951354762#0.107 951354762#0.109 951354762#0.110 951354762#0.112 951354762#0.127 951354762#0.129 951354762#1 951354762#1.1 951354762#1.3 951354762#1.20 896786261 -896786262#1 -951354764#1 -951354764#0 -951354764#0.33 -951354764#0.44 -951354764#0.55 -951354764#0.67 -896786265#6 -896786265#6.26 -896786265#5 -896786265#4 -896786265#4.59 -896786265#2 -896786265#0 909024253#0 951995490#0 909024242 -896786293#6 909024251 909024251.27 909024250#4 909024250#5 909024250#6 909024239#0 909024239#1 909024239#1.17 909024239#2 909024239#2.40 877398366#3 951995475#4 904371460#5 877396860#4 904371465#0 904371463#0 904371463#1 904371463#1.15 904286381#0 -904286374 904286375#3 -671191680#9 -671191680#8 896786325#0 896786325#0.98 896786325#0.107 896786325#0.114 896786325#0.120 896786325#0.127 896786325#0.178 896786325#1 896786325#2 -896786324#1 -896786324#0 -896786324#0.19 -896786324#0.132 -896786324#0.177 -877395784#19 -951946816#15 -951946816#14 -951946816#13 -951946816#13.3 -951946816#13.8 951951634#0 951951634#1 951951634#1.75 951951634#1.79 951951634#1.82 951951634#1.86 -951951632#0 951946805#2 951946837#0 951946837#1 951946837#2 951946834#1 -951946833#7 951951631#0 951951631#1 951951635#2 -951946806#8 951951629 951946833#11 951946833#11.92 951946833#11.95 951946833#11.98 951946833#11.101 -951946806#0 -952365020 -952365021 -951878231#2 -951951643#6 -951951643#5 -951951643#4 -951951643#3 -951951646 -951951642#2 -951951642#1 -951951648#1 951951649 951878263#7 951878263#8 951878230#4 -951891772#4 -951961237 -951891766#2 -951891766#2.2 -951891766#2.6 -951891766#2.10 -951891766#2.15 951891769#0 951891769#0.18 951891769#0.24 951891769#0.29 951891769#0.46 951891769#0.50 -951891768 -950288028#1 -950288028#0 951878269#5 951878269#6 -951891764#4 -951891764#2 -951887654#3 951891765#2 951891765#3 -951887660#3 -951887662 -951887661#1 -951887661#0 -904196454#2 -904196454#1 -904196454#1.67 -904196454#0 700825962#5 700825962#5.39 951891762 -700825961#6 -700825961#6.9 -700825961#5 -700825961#5.7 -700825961#5.17 951887700#1 -951887701#0 951887666#1 951887666#2 951887664#1 951887664#2 951887663#1 951887663#2 951887663#3 -951887660#0 877401978#1 951878266#0"/>
</vehicle>
</routes>
