<?xml version="1.0" encoding="UTF-8"?>
<routes xmlns:xsi="http: // www.w3.org/2001/XMLSchema-instance" xsi:noNamespaceSchemaLocation="http: // sumo.dlr.de/xsd/routes_file.xsd">
<vType id="veh_passenger" vClass="passenger"/>

<vehicle id = "veh0" type= "veh_passenger" depart="0" >
<route edges =" -813722269#3 -813722269#3.7 -813722269#3.48 -813722269#3.84 -813722269#3.86 620762213#0 620762213#0.9 620762213#0.88 620762212#0 620762212#0.8 620762212#0.52 6343949#6 6343949#7 6343949#8 6343949#8.52 6343949#10 6343949#10.49 6343949#12 6343949#12.47 -525497324#3 -525497324#2 243349944#4 243349944#4.53 243349944#6 243349944#7 -460419011#3 -460419011#2 6464126#3 6464126#3.49 6464126#5 -460419028#3 243349338#0 243349338#0.18 243349338#1 243349338#2 243349338#3 243349338#3.49 243349338#5"/>
</vehicle>
<vehicle id = "veh1" type= "veh_passenger" depart="0" >
<route edges =" -6457203#16 -6457203#16.59 975126260#0 975126260#0.49 -6505136#16 6368504#5 6368504#5.48 6368504#7 6368504#7.50 -6513783#8 -6513783#7 37657905#3 37657905#3.48 37657905#5 37657905#5.10 37657905#5.46 37657905#7 37657905#7.49 476409329 -6383185#5 6384373#1 6384373#2 6384373#2.45 6384373#2.56 -65588097#1 -65588097#1.119 337818330 6463035#0 6463035#0.14 6463035#0.38 6463035#3 -6495801#0 -185485132#12 -185485132#12.125 -185485132#11 -185485132#11.16 243349945#9 243349945#9.50 -6494975#8 -6494975#7 -6494975#6 -6494975#6.81 256994205#3 428246847#0 428246847#0.8 428246847#0.22 6386110#0 6386110#0.16 6386110#0.25 6386110#0.55 -243349338#6 -243349338#6.14"/>
</vehicle>
<vehicle id = "veh2" type= "veh_passenger" depart="0" >
<route edges =" -6522868 -6403883#7 -6403883#6 -6403883#5 -6403883#4 -6403883#3 -6403883#2 158882505#7 158882505#8 8111709#0 8111709#0.47 8111709#2 8111709#2.49 8111709#4 8111709#4.49 -6513783#5 6384359#8 6384359#9 6384359#9.26 -6381494#3 -6381494#3.43 6463017#6 6463017#6.48 -6386837#0 337739268 337739268.124 337739267#0 337818462 337818462.3 337818462.6 337739271#1 337739271#1.6 337739269#0 -460419011#4 243349944#8 -801995081#5 -801995081#5.197 -801995081#5.209 -801995081#2 -801995081#2.109 -801995081#0 243339793#4 243339793#5 243339793#6 243339793#6.50 243339793#6.74 -22917112 -185485118#1 6514312#0 6514312#0.70 -6523501#6 -6523501#6.6 185485127#1 -6494970#4 -6494970#4.172 -6494970#2 -6494970#2.4 -6494970#2.100 6358721#0 6358721#0.9 6415147#4 6415147#5 6415147#6 6351349#2 6351349#3 6351349#3.107 6351349#5 -185483733 -6414318#4 -157167355#0"/>
</vehicle>
<vehicle id = "veh3" type= "veh_passenger" depart="0" >
<route edges =" 817434294 817434294.10 817434294.36 817434294.44 817434294.63 817434294.119 6343949#0 6343949#0.7 6343949#0.86 6343949#3 6343949#3.9 6343949#3.49 620762212#3 6430729#6 6430729#6.47 6430729#6.48 6430729#9 6430729#9.48 6430729#11 6430729#11.51 6430729#13 6430729#13.48 6430729#15 6430729#15.48 6430729#17 6430729#17.51 -620762224#0 -66558981#7 -66558981#7.65 -66558981#7.83 -66558981#7.105 -66558981#7.123 -66558981#2 -66558981#2.131 -66558981#2.234 525497323#2 525497323#2.81 -481291488#2 -481291488#1 -481291488#0 -481291488#0.69 -481291488#0.82 -6447971#10 -6447971#10.11 -6447971#9 -6447971#8 -6447971#7 -6447971#6 -6447971#5 -6447971#4 169917351#6 169917351#7 169917351#7.49 169917351#9 169917351#9.48 169917351#9.87 169917351#12 169917351#12.9 169917351#12.42 169917351#12.90 -6360239#3 -6360239#3.6 -6360239#3.69 -6360239#3.102 6487445#0 6487445#0.8 6415147#0 6415147#0.61 6449462#3 6449462#3.7 6449462#3.50 6449462#3.60 6449462#3.72 6449462#3.87 795669782#0 795669782#0.54 795669782#2 6371720#2 6371720#3 157167355#0"/>
</vehicle>
<vehicle id = "veh4" type= "veh_passenger" depart="3605" >
<route edges =" -813722269#3 -813722269#3.7 -813722269#3.48 -813722269#3.84 -813722269#3.86 620762213#0 620762213#0.9 620762213#0.88 57883609#0 57883609#0.6 57883609#0.57 -826314455#3 -826314455#3.64 -826314455#3.71 -826314455#3.76 -826314455#3.90 -826314455#3.118 -349901821 349901822#0 349901822#0.9 96029553#0 96029553#0.9 96029553#0.15 96029553#0.59 8071900#0 8071900#0.7 8071900#0.18 8071900#0.88 22917111#27 22917111#27.7 22917111#27.54 22917111#27.95 460423532#0 460423532#0.2 620762218#0 620762218#0.55 620762218#0.66 620762218#0.68 620762218#0.81 -6440348#7 -6440348#7.9 243349944#0 243349944#0.4 243349944#0.20 243349944#0.49 243349944#4 243349944#4.53 243349944#6 243349944#7 -460419011#3 40416132#1 40416132#1.90 -801995081#2 -801995081#2.109 6464126#5 6464126#6 6360256#2 6360256#2.128 -243349338#0 -243349338#0.76 -460419028#2 -460419028#2.56 -460419028#2.72 -460419028#2.102 -460419028#2.140 396055524#0 396055524#0.9 396055524#0.30 396055524#0.54 396055524#0.65 256994205#0 256994205#0.67 256994205#1 -185485132#6 -185485132#6.52 243349338#3 243349338#3.49 243349338#5"/>
</vehicle>
<vehicle id = "veh5" type= "veh_passenger" depart="3605" >
<route edges =" -6522868 -6403883#7 -6323849#4 -6323849#4.14 -6323849#4.28 -6323849#4.52 -6323849#4.61 -6323849#4.72 -160552467#11 -160552467#11.13 -160552467#11.23 -160552467#11.33 -160552467#11.44 -160552467#11.54 -160552467#11.62 -160552467#11.70 -160552467#11.80 -160552467#11.88 -160552467#11.115 -160552467#11.127 -160552467#10 -160552467#10.17 -160552467#10.28 -160552467#10.38 158882511#5 158882511#5.46 158882511#5.58 6403883#4 6368504#0 6368504#1 6368504#1.33 -6457203#13 -6457203#13.26 8111707#0 8111707#0.47 8111707#2 8111707#2.47 -603522174#1 -603522174#0 -975126260#3 -975126260#3.49 6505136#17 6505136#17.194 6505136#17.197 6339665#0 6339665#0.2 6339665#0.6 6339665#0.46 603522176#0 603522176#0.48 603522176#2 603522176#2.50 6381494#16 933598957 933598957.180 6434058#0 6434058#0.15 6434058#0.33 6434058#0.56 6434058#0.73 6434058#0.96 6434058#0.116 6434058#0.128 6434058#1 481291021#0 6444679 481291024#0 481291024#1 481291024#1.68 481291024#1.82 -179553345#6 -179553345#6.47 -179553345#6.49 -179553345#6.105 -179553345#6.124 -179553345#6.150 -179553345#6.182 -179553345#6.190 -179553345#6.201 -179553345#6.204 394737317#1 394737317#1.24 394737317#1.48 7978481#0 7978481#0.13 7978481#0.110 7978481#0.135 7978481#0.150 7978481#0.178 7978481#0.191 -6383185#21 -6383185#20 -6383185#20.7 -6383185#20.14 -6383185#20.31 -6383185#20.76 -6383185#20.87 -6383185#20.95 -6383185#18 -6383185#18.50 -6383185#18.92 -481291020#5 -481291020#5.43 -481291020#5.65 -481291020#2 -481291020#2.33 -481291020#2.45 -481291018 481291019#0 481291019#0.47 -476409334#1 -603522176#7 -603522176#7.43 -638348588#0 -263666867#2 -263666867#2.43 -263666867#2.72 -603522173#3 -603522173#3.49 -6513783#9 -6513783#8 -6513783#7 37657905#3 37657905#3.48 6381494#9 6381494#9.36 6381494#9.62 -170683231#18 -170683231#18.37 -170683231#18.49 336904472#5 336904472#5.77 6368504#15 6368504#15.40 6368504#15.46 6368504#15.67 476409332#0 476409332#0.44 -6383185#7 170683231#10 170683231#10.39 791722143#1 476409328#0 476409328#0.201 476409328#2 476409328#2.118 8071925#0 8071925#0.9 8071925#0.55 8071925#2 8071925#2.36 8071925#2.74 6460085#0 6460085#0.9 6460085#0.43 6460085#0.101 6460085#2 6460085#2.86 6460085#4 6460085#4.35 6460085#5 6460085#5.26 6460085#6 6460085#6.62 6460085#7 6460085#7.14 6460085#7.41 6345330#0 65588097#9 -6523125#0 6460085#12 6460085#12.26 735164737 735164737.10 735164737.15 6522860#0 6522860#0.11 6522860#1 6522860#2 6522860#2.23 6522860#2.40 6522860#2.46 6522860#2.55 6522860#2.62 6522860#2.67 6522860#2.76 6522860#2.89 -6495798#6 -6495798#6.39 -6495798#4 -6495798#3 476409332#7 -6356667#2 -6356667#1 -6356667#1.147 -6356667#1.181 -428315591#1 -428315591#0 -428315592#5 -428315592#4 -428315592#4.102 -428315592#4.134 -6448612#3 -6448612#3.16 -6463035#2 -6463035#2.46 -6463035#2.71 -460421484#1 -460421484#1.13 -6486416#2 -6486416#2.9 -6486416#2.116 -6360256#15 -6360256#15.7 -6360256#15.133 361784407#0 361784407#0.8 361784407#0.38 361784407#0.53 22917113#8 22917113#8.9 22917113#8.12 22917113#8.134 805680044#5 805680044#5.6 805680044#5.49 -185485132#12 -185485132#12.125 805658294#0 805658294#0.38 805658294#0.52 6494975#10 6494975#10.11 6494975#10.19 6356676#0 6463035#7 279467136#1 279467136#2 279467136#2.29 279467136#2.52 40416130#0 6349133#3 6414237#0 6414237#0.11 6353867#2 6346315#0 6346315#0.6 6346315#0.13 6346315#0.28 6346315#0.35 6346315#0.40 6346315#0.46 -6353172#2 -6353172#2.5 6414237#2 6414237#2.7 6414237#2.43 6414237#2.81 6414237#6 6414237#6.7 6414237#6.34 -6369950#6 -6369950#6.6 -6369950#6.120 -40416130#6 -243352868#1 -243352868#1.19 170683665#13 -6369950#2 -6369950#2.24 -6369950#0 -336908262#6 -336908262#5 -336908262#5.80 -160624558#4 -160624558#4.98 -160624558#2 243349945#17 -359671039#6 -359671039#5 -359671039#5.121 -6447445#14 -6447445#13 -6447445#13.40 6472289#1 6472289#2 -243349945#14 -243349945#14.50 -243349945#12 -243349945#12.49 -6494975#8 -6494975#7 6447445#9 6447445#9.49 -22760521#2 -22760521#2.81 -22760521#2.121 428246847#0 428246847#0.8 428246847#0.22 6386110#0 6386110#0.16 6386110#0.25 6386110#0.55 -243349338#6 -243349338#6.14"/>
</vehicle>
<vehicle id = "veh6" type= "veh_passenger" depart="3605" >
<route edges =" 6457203#17 -6428544#18 -6428544#18.43 -6428544#18.144 -6428544#15 -6428544#15.8 -6428544#13 32143939 -6411908#6 -8071379#1 -8071379#1.46 -6346524#3 -6346524#3.8 -6346524#3.13 -6346524#3.18 -6346524#3.26 -6346524#3.31 -6346524#3.36 -6346524#3.41 -6346524#3.51 -158882511#2 -158882511#2.44 -158882511#0 896104581#0 896104581#0.119 158882517#0 -6368665#2 158882505#2 158882505#3 6411908#3 158882517#3 158882517#4 158882517#5 158882517#6 158882517#6.46 158882517#6.66 158882517#6.67 158882517#6.69 158882517#6.71 158882517#6.73 -6457203#7 -6457203#7.15 -6457203#7.37 -6457203#7.51 -6457203#7.77 -6457203#7.91 -158882505#8 -6469837#1 -6469837#1.51 171739214#21 171739214#21.8 171739214#21.28 171739214#21.32 -6457203#0 -8071899 -292812446#5 -292812446#4 -292812446#4.6 -292812446#4.35 -292812446#4.44 -292812446#4.56 -292812446#4.99 -292812446#4.111 292812445#0 292812445#0.35 292812445#0.50 6505136#0 6505136#0.18 6505136#0.27 6505136#0.73 6505136#0.87 6505136#0.118 6463017#0 6463017#0.48 6464042#2 6464042#2.9 6464042#3 6464042#3.16 6464042#3.33 6464042#3.50 6464042#3.56 8111709#4 8111709#4.49 -6513783#5 6384359#8 6384359#9 6384359#9.26 -6381494#3 -6381494#3.43 6463017#6 6463017#6.48 -6386837#0 292812445#11 292812445#11.49 481291015#0 481291015#0.20 481291015#0.59 -343521145#3 -343521145#3.32 -343521145#3.66 -343521145#3.101 -343521145#3.142 -343521145#3.155 337739267#0 337739267#1 337739271#0 337739271#0.10 337739271#0.13 337739271#1 337739271#1.6 337739269#0 -460419011#4 243349944#8 801995081#6 801995081#6.192 337739269#3 337739269#3.69 396055523#5 396055523#5.8 396055523#5.42 396055523#7 396055523#7.122 396055523#9 396055523#9.6 396055523#9.20 396055523#9.54 6447445#0 6447445#0.8 6447445#0.87 -6360256#5 -396055524#1 -396055524#1.29 -396055524#1.40 -396055524#1.64 -396055524#1.86 460419028#0 460419028#0.11 460419028#0.49 460419028#0.79 460419028#0.95 460419028#3 -6464126#5 -6464126#4 -6464126#4.47 -460419011#1 -460419011#1.97 -460419011#0 -460419011#0.11 460419013#0 460419013#0.51 -6380913#14 -6380913#13 6425675 -460419024#4 -460419024#4.23 -460419024#4.72 -460419024#4.91 -460419024#4.105 -460419024#4.115 -460419028#7 -460419028#7.7 -460419028#7.33 -460419028#7.45 243339793#5 -6360256#0 -6360256#0.8 486875123#0 486875123#0.56 486875123#0.88 22917112 22917113#0 22917113#0.56 22917113#2 243349338#2 -185485132#4 -185485132#3 -185485132#3.101 243339793#11 243339793#11.47 -6494975#0 -6494975#0.7 -6494970#7 926425191#2 926425193#2 926425193#2.6 926425193#2.94 926425193#2.182 926425193#2.204 926425193#2.206 336908264#2 336908264#2.29 -169917351#27 -169917351#27.11 -169917351#27.76 -169917351#24 -169917351#24.6 -169917351#24.71 -6523501#2 -6523501#2.5 -6523501#2.101 6497081#0 6497081#0.8 6415147#3 6415147#4 428247193#3 428247193#3.27 486632638#0 486632638#0.14 486632638#0.27 256996977#0 256996977#0.9 256996977#0.40 6489809#0 6489809#0.40 6415147#6 6415147#7 6354836#1 6354836#1.40 6354836#3 6354836#4 6354836#5 6354836#5.54 6354836#7 6354836#7.92 -6467368#3 6367253#0 6367253#0.7 -6485999#2 -6351337#0 -6467368#0 -185483738#2 -185483738#2.93 -185483738#0 -6414318#4 -157167355#0"/>
</vehicle>
<vehicle id = "veh7" type= "veh_passenger" depart="3605" >
<route edges =" 817434294 817434294.10 817434294.36 817434294.44 817434294.63 817434294.119 816616072#4 816616072#4.7 816616072#4.62 816616072#4.121 816616072#8 816616072#8.6 816616072#8.121 6346526#0 6346526#0.6 6346526#0.99 6346526#0.121 337668916#4 337668916#4.6 337668916#4.52 6411908#1 6411908#1.103 6411908#1.111 171739214#14 -160552467#5 -160552467#5.18 -160552467#5.25 -160552467#5.30 -160552467#5.63 -160552467#5.85 -160552467#0 -620762212#5 -620762212#5.7 6430729#6 6430729#6.47 6430729#6.48 6430729#9 6430729#9.48 8071898#2 6343949#8 6343949#8.52 6343949#10 6343949#10.49 6440348#11 6440348#11.4 6440348#11.7 6440348#11.62 6440348#11.73 6440348#14 6464042#0 6464042#0.76 6463017#2 6463017#2.44 6463017#2.48 -6513783#1 -6513783#1.10 962517344 962517344.33 -6381494#0 -292812445#8 -292812445#8.59 -525497324#8 -525497324#7 -525497324#7.39 -525497324#7.54 -525497324#7.112 -525497324#3 620762218#5 620762218#5.18 620762218#5.80 -66558981#7 -66558981#7.65 -66558981#7.83 -66558981#7.105 -66558981#7.123 -66558981#2 -66558981#2.131 -66558981#2.234 525497323#2 525497323#2.81 -481291488#2 -6464138#14 -6481166#10 -6481166#10.6 -6481166#10.8 -6481166#10.120 353690154#15 353690154#15.50 -6447971#10 -6447971#10.11 486874837#2 486874837#2.47 -460419014 -460419014.67 -460419007#0 -460419007#0.17 -460419007#0.46 -6515975#8 -6463532#1 -6463532#1.50 -6447971#6 -6467507#3 -6467507#2 -6467507#2.10 -6467507#2.91 -901474742#2 -901474742#2.5 -901474742#2.43 -901474742#2.83 -901474739#9 -901474739#9.9 -901474739#9.83 -6440364#6 -6440364#6.6 -6440364#6.86 -901477545#6 -901477545#6.10 -901477545#6.71 -6346769#4 -6346769#4.6 -6346769#4.27 -6346769#4.65 -6346769#4.102 6506833#0 6506833#0.9 6506833#0.37 6506833#0.54 6506833#0.84 22917663#11 22917663#11.6 22917663#11.23 22917663#11.87 -6465130#2 -6465130#2.8 -6465130#2.84 256996974#6 256996974#6.9 256996974#6.21 256996974#6.40 256996974#6.89 901474740#0 901474740#0.9 901474740#0.50 901474740#0.58 901474740#0.104 169917351#0 169917351#0.8 169917351#0.53 169917351#0.88 169917351#4 169917351#4.51 6447971#4 6507809#4 6507809#5 6507809#5.51 6507809#7 6507809#7.46 6507809#7.87 6516509#11 6516509#11.6 6516509#11.34 6516509#11.86 -169917351#11 -169917351#11.10 -169917351#11.50 -6380913#3 -6380913#3.7 -6380913#3.66 -6380913#3.103 256996975#0 256996975#0.50 256996975#0.62 256996975#0.65 256996975#0.91 256996976#0 256996976#0.11 256996976#0.20 256996976#0.46 256996976#0.79 6487445#0 6487445#0.8 6415147#0 6415147#0.61 6449462#3 6449462#3.7 6449462#3.50 6449462#3.60 6449462#3.72 6449462#3.87 795669781 795669781.52 795669781.56 460421481#1 460421481#1.61 460421481#1.85 -428247194#1 -428247194#1.9 -428247194#1.28 -157167355#3 -157167355#3.5 -157167355#3.43 -6414318#3 -6414318#2 -6414318#2.8 795669782#2 -6371720#1 -6371720#1.81 460418987#2 -6371704#2 -6371704#2.42 -460418992#2 -460418992#2.50 -460418992#2.92 -337742188#11 -337742188#11.8 -337742188#11.28 -337742188#11.102 -337742188#8 -337742188#8.6 -337742188#8.83 -337742188#8.106 -337742188#8.123 -337742188#8.140 -337742188#8.159 22917673#2 22917673#2.9 22917673#2.36 22917673#2.81 -22917667#4 -22917667#4.168 22917670#7 22917670#7.7 22917670#7.71 795846818#5 795846818#5.5 795846818#5.174 481291011#0 481291011#0.6 481291011#0.65 481291010#0 481291010#0.19 481291010#0.23 481291010#0.30 481291010#0.133 481291010#3 481291010#3.6 481291010#3.100 -6497081#10 -6497081#10.7 6371720#3 157167355#0"/>
</vehicle>
<vehicle id = "veh8" type= "veh_passenger" depart="7210" >
<route edges =" -814326475#2 -814326475#2.9 -814326475#2.24 -814326475#2.41 -814326475#2.70 -814326475#2.91 -723013181#2 -723013181#2.9 -723013181#2.18 -723013181#2.38 -723013181#0 -332601014#3 -332601014#3.31 -332601014#3.36 -332601014#3.42 -428246436#1 -428246436#1.13 -428246436#1.22 -428246436#1.37 -808907363#3 -808907363#3.25 -808907363#3.35 -808907363#3.48 -808907363#3.53 -808907363#3.61 607690679#0 607690679#0.3 607690679#0.8 607690679#0.15 607690679#0.94 428341734#0 428341734#0.10 428341734#0.39 428341734#0.88 428341734#4 428341734#4.8 428246439#0 428246439#0.14 -569505978#1 -569505978#1.10 -569505979 -569505979.32 -569505979.79 337673338#0 337673338#0.14 185882764 185882764.13 185882764.14 164418942#0 164418942#0.4 164418942#0.7 164418942#0.9 164418942#0.11 164418942#0.14 164418942#0.15 337673339 826314456#0 826314456#0.9 826314456#0.50 826314456#0.96 826314456#0.103 349901821 825336588#0 825336588#0.7 349901822#2 349901822#2.21 -620762214 -8071898#3 -8071898#2 6430729#11 6430729#11.51 65588093#3 292812445#3 292812445#3.49 292812445#5 292812445#5.45 -525497324#8 -525497324#7 -525497324#7.39 -525497324#7.54 -525497324#7.112 -525497324#3 -525497324#2 243349944#4 243349944#4.53 -66558981#2 -66558981#2.131 -66558981#2.234 -6481166#12 -6481166#11 -6481166#11.122 -6481166#11.125 -6481166#10 -6481166#10.6 -6481166#10.8 -6481166#10.120 -353690154#14 -353690154#14.66 -353690154#14.91 -6512920#3 -6512920#3.8 -6512920#3.9 -6512920#3.19 -6512920#3.59 -6512920#3.92 486874837#0 486874837#1 486874837#2 486874837#2.47 460419011#0 460419011#0.101 460419011#1 460419011#1.11 6464126#3 6464126#3.49 6464126#5 -460419028#3 243349338#0 243349338#0.18 -6360256#3 -6360256#3.44 6464126#7 6464126#7.50 6464126#9 6464126#9.46 6464126#11 6464126#11.50 6494975#2 243349338#5"/>
</vehicle>
<vehicle id = "veh9" type= "veh_passenger" depart="7210" >
<route edges =" -6457203#16 -6457203#16.59 975126260#0 975126260#0.49 975126260#2 975126260#2.48 603522173#0 603522173#0.48 -6513783#9 -6368504#8 -6368504#8.48 -6368504#6 -6368504#6.48 -6505136#15 -6505136#14 -6505136#13 -6505136#13.115 8111709#2 8111709#2.49 6464042#8 6464042#8.123 37657905#0 37657905#0.5 37657905#0.47 37657905#3 37657905#3.48 37657905#5 37657905#5.10 37657905#5.46 37657905#7 37657905#7.49 476409329 61151096 6460085#5 6460085#5.26 6460085#6 6460085#6.62 6460085#7 6460085#7.14 6460085#7.41 6345330#0 -65588097#8 -65588097#8.39 -65588097#6 -65588097#5 -65588097#5.172 -6464374 -6460085#3 -6460085#3.55 -6460085#1 -6460085#1.27 -6460085#1.86 -6460085#1.119 460399791#0 460399791#0.9 460399791#0.31 460399791#0.97 460399791#0.99 92170540#0 92170540#0.10 396055523#1 396055523#1.42 396055523#1.177 396055523#1.183 396055523#5 396055523#5.8 396055523#5.42 243349945#0 243349945#0.6 243349945#0.83 6360256#10 6360256#10.7 6360256#10.57 6360256#10.71 6360256#10.113 6360256#10.122 6360256#10.124 6360256#14 6360256#14.7 6360256#14.133 805680044#1 805680044#1.7 805680044#1.49 805680044#1.91 6448612#0 6448612#0.9 6448612#2 6448612#2.70 6448612#4 6448612#4.11 6448612#6 6448612#6.328 6448612#8 476409332#6 -6495798#2 -170683231#2 -6356667#1 -6356667#1.147 -6356667#1.181 428315591#2 428315591#2.6 428315591#2.15 428315591#2.25 428315591#2.59 428315591#2.76 912599280 6488417#0 6488417#0.10 739678026 739678026.4 170683288#0 170683288#0.14 170683288#1 170683288#1.76 170683288#1.83 476409332#9 476409332#9.68 -6349126#4 -6349126#4.29 -6349126#4.47 -6349126#4.62 -6349126#4.68 -6349126#4.76 -6349126#4.79 -6349126#4.104 -854081622#0 -854081622#0.13 -19000995#2 -19000995#2.7 -19000995#2.29 535540392#0 535540392#0.117 -40416127#2 -40416127#2.7 -40416127#2.26 40416130#0 40416130#1 6353867#1 6414237#1 -6353172#1 -6353172#0 -170683665#8 -170683665#7 -6349133#1 -6463035#9 -6463035#9.48 -6463035#7 -6356676#0 805680044#10 -243349942#2 805658294#4 805658294#4.48 6472289#4 336908262#2 336908262#2.49 336908262#4 336908262#4.6 -359671039#10 -359671039#10.86 -359671039#8 -359671039#8.55 243349945#18 -532125609#2 -243349944#26 -243349944#25 -243349944#24 -243349944#24.50 -243349944#22 -243349944#22.50 -243349944#20 -243349944#20.50 -243349944#18 -243349944#18.47 -185485132#9 -6447445#6 -6447445#6.50 -22917113#4 256994205#1 256994205#2 256994205#2.24 256994205#2.72 256994205#3 428246847#0 428246847#0.8 428246847#0.22 6386110#0 6386110#0.16 6386110#0.25 6386110#0.55 -243349338#6 -243349338#6.14"/>
</vehicle>
<vehicle id = "veh10" type= "veh_passenger" depart="7210" >
<route edges =" -6522868 6403883#8 -6428544#15 -6428544#15.8 -6428544#13 32143939 -6411908#6 -6411908#5 -6411908#5.12 -6411908#5.22 -6411908#5.31 -6411908#4 158882517#3 160552467#9 158882511#5 158882511#5.46 158882511#5.58 6403883#4 6403883#5 6345333 -6457203#14 -6457203#14.67 -6368504#2 -6368504#2.43 -6469837#4 -6469837#4.19 -6469837#3 -158882517#5 -6403883#2 -158882505#6 -158882505#5 -158882505#5.47 -158882505#3 -158882505#2 6368665#2 158882517#1 6346524#2 -158882511#2 -158882511#2.44 -158882511#0 158882561#0 158882561#0.63 158882561#0.77 158882561#0.95 158882561#0.112 61958425 337099385#0 337099385#0.5 337099385#0.11 263668130#0 6346524#7 -6428544#10 -6428544#10.8 -6428544#10.15 -6428544#10.34 -6428544#10.40 -6428544#10.45 -6428544#10.52 -6428544#6 -428098976#2 -428098976#2.133 -428098976#2.136 -428098973 -6400858#1 -6400858#1.92 -6400858#1.135 -6400858#1.139 -6400858#1.143 -6400858#1.147 -8071380#1 -8071380#1.2 -8071380#1.5 -8071380#1.8 -8071380#1.11 -8071380#1.45 -8071380#1.57 -8071380#1.61 462701467#0 462701467#0.142 8071381#0 8071381#0.67 8071381#2 -8071658#1 -8071658#1.35 -6384935#5 -6384935#5.4 -6384935#3 -6384935#3.145 -8071895#0 6358515#1 6358515#2 -6428544#1 -6348400#1 -6348400#1.20 -6348400#1.22 -6348400#1.27 -6348400#0 621088607#1 621088606#0 621088606#1 51476458 6366765#0 6366765#0.3 6366765#0.7 6366765#0.10 6366765#0.14 6366765#0.17 6366765#0.86 6366765#0.127 6366765#0.141 6368518#2 6368518#2.46 -749754758#10 -749754758#9 -749754758#9.120 6414229#8 6414229#8.3 6414229#8.47 6374789#11 6374789#11.72 6346308#6 -6358524#11 -6358524#11.47 -6358524#11.63 6414229#12 -752851600#10 -752851600#10.40 -752851600#10.121 -752851600#7 -752851600#7.4 -752851600#7.57 -752851600#7.63 -752851600#7.66 -752851600#7.67 -752851600#7.73 -752851600#7.93 -752851600#7.95 -171739214#2 -171739214#2.11 -171739214#2.63 -6358524#2 -6358524#2.6 -6358524#2.122 -742713664#1 -742713664#1.7 -742713664#1.9 -742713664#1.19 -749754754#1 -749754754#1.14 -749754754#1.29 -6374789#2 -6374789#2.29 -6374789#2.54 -6374789#2.90 6474762#2 6474762#2.29 6474762#2.32 6474762#2.34 6474762#3 6474762#3.35 6474762#3.38 6474762#3.42 6474762#3.46 6474762#3.49 6474762#3.54 6474762#5 6474762#5.49 6474762#5.86 428098988#0 428098988#0.8 428098988#0.9 428098988#0.54 428098988#0.75 428246434#0 428246434#0.18 623536799#0 623536799#0.9 623536799#0.30 623536799#0.39 623536799#0.58 623536799#0.61 623536799#0.92 337668911#0 337668911#0.7 337668911#0.37 337668911#0.90 171739214#10 171739214#11 171739214#12 171739214#13 171739214#14 171739214#15 171739214#15.31 171739214#15.57 -6403874#2 -6403874#2.90 337668916#10 6463027#0 6463027#0.20 6463027#0.21 6463027#0.23 6463027#0.25 6463027#0.26 6463027#0.28 6463027#0.31 6463027#0.33 6463027#0.35 6463027#0.37 6463027#0.39 6463027#0.76 292812446#5 8071899 6457203#0 6457203#1 6457203#1.8 6457203#1.16 6457203#1.38 6457203#1.55 8111709#0 8111709#0.47 -6505136#12 -6505136#12.73 -6505136#12.84 -6505136#12.102 -6505136#12.111 -6505136#12.122 6384359#4 6384359#4.13 6384359#4.31 6384359#4.51 6384359#6 6384359#6.48 6384359#8 6384359#9 6384359#9.26 -6381494#3 -6381494#3.43 6463017#6 6463017#6.48 -6386837#0 337739268 337739268.124 337739267#0 337739267#1 -481291488#10 -481291488#10.44 -481291488#10.61 -481291488#10.85 -481291488#10.132 -481291488#10.142 243349944#7 -460419011#3 -40416132#0 -40416132#0.78 -481291488#2 -481291488#1 -481291488#0 -481291488#0.69 -481291488#0.82 243339793#0 243339793#0.48 -460419011#0 -460419011#0.11 -460419014 -460419014.67 6425689#2 6425689#2.48 6380913#14 801995082 243339793#4 -460419028#4 6464126#6 -6360256#1 -6360256#1.102 243339793#6 243339793#6.50 243339793#6.74 -22917112 481291012#0 481291012#0.24 481291012#0.32 481291012#2 481291012#2.49 481291012#5 481291012#5.49 6498476 6498476.121 6498476.127 6498476.134 926425193#1 926425193#1.12 926425193#1.24 926425193#1.34 926425191#3 6391677 -8071924#0 -8071924#0.15 -428246845 -6386110#6 -6386110#6.5 -6386110#4 -6386110#4.86 6464126#15 6464126#15.47 -795671505#1 -795671505#1.57 -795671505#1.102 795671506#0 795671506#0.46 6501822#9 6501822#9.6 6336174#0 6336174#0.42 -359671039#0 359671040#0 359671040#0.40 6449970#9 6336174#4 6506505#5 6464130#5 6464130#6 -243349941#4 -243349941#3 -32143377#1 -32143377#1.40 -6348024#4 -6425683#1 -6506505#2 -6463541#4 -6463541#4.39 -6463541#4.42 -6463541#1 -6396312#1 -185485127#10 -185485127#9 -185485127#9.41 -185485127#9.47 -185485127#6 -185485127#5 -185485127#5.56 -185485127#3 -185485127#3.10 -6494970#4 -6494970#4.172 169917351#25 169917351#25.7 169917351#25.72 336908264#3 428247197#0 428247197#0.12 -460421482#10 -460421482#10.13 -460421482#10.46 -460421482#10.56 -460421482#10.76 6358721#0 6358721#0.9 6415147#4 6415147#5 6415147#6 -6351349#1 -6351349#1.48 -6351349#1.82 6472293#0 6472293#0.6 6472293#0.29 6507813#1 6507813#1.41 6507813#1.49 -6501822#1 -6501822#0 -6501822#0.165 256996977#8 620762211#0 620762211#0.4 620762211#0.8 620762211#0.77 620762211#1 620762211#1.10 620762211#1.36 620762211#1.73 620762211#1.115 620762211#1.170 620762211#1.178 6335280 6335280.16 6335280.119 6335280.125 -661086630#4 -661086630#4.5 -661086630#4.8 -661086630#4.25 -661086630#4.63 6354836#5 6354836#5.54 6354836#7 6354836#7.92 -6467368#3 6367253#0 6367253#0.7 -6485999#2 6351337#1 6351337#1.120 6351337#3 6351337#3.8 6351337#3.120 6351337#3.123 754699003#5 754699003#5.6 -428100741#1 -428100741#1.107 428247196#0 428247196#0.9 512126023#0 512126023#1 512126023#1.30 512126023#1.40 512126023#3 512126023#3.2 512126023#3.136 512126023#3.140 512126023#3.156 512126023#3.203 512126023#3.215 512126023#3.227 512126023#3.239 512126022#0 512126022#0.11 512126022#0.46 -185483738#3 -185483738#3.11 -185483738#3.19 6467368#0 -661086629#2 -661086629#2.7 -661086629#0 -185483733 -6414318#4 -157167355#0"/>
</vehicle>
<vehicle id = "veh11" type= "veh_passenger" depart="7210" >
<route edges =" -813722269#3 -813722269#3.7 -813722269#3.48 -813722269#3.84 -813722269#3.86 620762213#0 620762213#0.9 620762213#0.88 620762212#0 620762212#0.8 620762212#0.52 620762212#3 620762212#4 620762212#4.122 160552467#0 337668916#8 337668916#8.47 -6403874#0 171739207#4 171739207#4.40 171739207#4.43 171739207#4.47 171739207#4.50 171739207#4.52 171739207#4.54 171739207#4.77 171739207#4.80 171739207#4.82 171739207#4.85 171739207#4.87 171739207#4.90 171739207#4.113 292812445#0 292812445#0.35 292812445#0.50 6505136#0 6505136#0.18 6505136#0.27 6505136#0.73 6505136#0.87 6505136#0.118 6463017#0 6463017#0.48 6463017#2 6463017#2.44 6463017#2.48 -6513783#1 -6513783#1.10 962517344 962517344.33 -6381494#0 -620762224#1 -620762224#0 -66558981#7 -66558981#7.65 -66558981#7.83 -66558981#7.105 -66558981#7.123 243349944#6 -481291488#4 -481291488#4.47 -525497323#2 -525497323#2.13 -525497323#1 -525497323#1.48 -6512920#11 -6512920#11.12 -6512920#11.49 -6512920#11.62 -6512920#11.76 -6512920#11.147 -293775902#11 -293775902#11.6 -293775902#11.48 -293775902#11.91 -6440371#8 -6440371#8.7 -6440371#8.122 -6440371#8.124 -6440371#8.125 -6464138#7 -6464138#7.10 -6464138#7.47 -6464138#7.91 -22917111#16 -22917111#16.4 -22917111#16.5 -22917111#16.7 -22917111#16.120 -22917111#16.122 -22917111#13 -22917111#13.8 -22917111#13.10 -22917111#13.79 -22917111#13.80 -22917111#13.98 -22917111#13.123 460419029#5 460419029#5.8 460419029#5.52 460419029#5.91 460419029#9 460419029#9.7 460419029#9.45 -901419468#4 -901419468#4.51 -901419468#4.132 -901419468#4.164 -901419468#4.186 -901419468#4.196 -901419468#4.197 465971499#0 465971499#0.6 -6481166#6 6467507#3 6467507#4 6467507#4.48 -6515975#6 -6515975#5 -6515975#5.48 169917351#7 169917351#7.49 169917351#9 169917351#9.48 169917351#9.87 -6516509#14 -6516509#14.5 -6516509#14.58 -6516509#14.86 6507809#10 6507809#10.8 6507809#10.91 6507809#13 6507809#13.9 6507809#13.77 6452520#6 6452520#6.7 185485118#0 185485118#0.64 185485118#0.103 185485118#0.149 6514312#0 6514312#0.70 -6523501#6 -6523501#6.6 -6523501#4 -6523501#4.175 -169917351#21 -169917351#21.6 -169917351#21.71 -6452520#2 -6452520#2.4 -6452520#2.101 460421482#0 460421482#0.8 460421482#0.73 6497081#0 6497081#0.8 6497081#2 6497081#2.38 6497081#2.47 6497081#2.53 6497081#2.60 6497081#2.67 6497081#2.70 6497081#2.74 6497081#2.81 6497081#2.120 6497081#6 6497081#6.44 6497081#8 6371720#3 157167355#0"/>
</vehicle>
<vehicle id = "veh12" type= "veh_passenger" depart="10815" >
<route edges =" -813722269#3 -813722269#3.7 -813722269#3.48 -813722269#3.84 -813722269#3.86 569505974#0 569505974#0.10 569505974#0.37 816616073#0 816616073#0.78 6343949#3 6343949#3.9 6343949#3.49 6343949#6 6343949#7 8071898#3 620762214 332092195#0 332092195#0.9 332092195#0.74 -22917111#30 -22917111#30.9 -22917111#30.50 -22917111#30.96 8071900#4 8071900#4.7 8071900#4.49 8071900#4.88 8071900#8 8071900#8.6 8071900#8.7 8071900#8.49 8071900#8.53 525497324#1 243349944#4 243349944#4.53 -66558981#2 -66558981#2.131 -66558981#2.234 525497323#2 525497323#2.81 40416132#0 40416132#0.19 460419011#3 243349944#8 243349944#9 243349944#10 243349944#10.7 243349944#10.84 6360256#8 6360256#8.125 6360256#10 6360256#10.7 6360256#10.57 6360256#10.71 6360256#10.113 6360256#10.122 6360256#10.124 361784407#0 361784407#0.8 361784407#0.38 361784407#0.53 -22917113#7 -22917113#7.10 -22917113#7.19 -22917113#6 243349944#15 243349944#15.48 -185485132#9 -6447445#6 -6447445#6.50 -6447445#4 -6447445#4.47 -6360256#5 256994205#0 256994205#0.67 256994205#1 256994205#2 256994205#2.24 256994205#2.72 256994205#3 428246847#0 428246847#0.8 428246847#0.22 6386110#0 6386110#0.16 6386110#0.25 6386110#0.55 -243349338#6 -243349338#6.14"/>
</vehicle>
<vehicle id = "veh13" type= "veh_passenger" depart="10815" >
<route edges =" -816616074#1 -816616074#1.10 -816616074#1.14 -816616074#1.119 428341734#4 428341734#4.8 428246439#0 428246439#0.14 428246438#0 428246438#0.8 428246440#0 428246440#0.62 800744529#0 800744529#0.7 800744529#0.52 800744529#0.89 825336588#0 825336588#0.7 96029553#0 96029553#0.9 96029553#0.15 96029553#0.59 8071900#0 8071900#0.7 8071900#0.18 8071900#0.88 -22917111#26 -22917111#26.7 -22917111#26.41 -22917111#26.121 32135548#5 32135548#5.7 32135548#5.49 32135548#5.88 32135548#9 32135548#9.7 32135548#9.47 32135548#9.63 32135548#9.78 525497323#0 525497323#0.50 -6481166#12 -6481166#11 -6481166#11.122 -6481166#11.125 6464138#14 -481291488#1 -481291488#0 -481291488#0.69 -481291488#0.82 243339793#0 243339793#0.48 460419011#1 460419011#1.11 6464126#3 6464126#3.49 -801995081#0 243339793#4 -460419028#4 6464126#6 6464126#7 6464126#7.50 -22917113#1 -22917113#1.55 243339793#9 243339793#9.48 243339793#11 243339793#11.47 -6494975#0 -6494975#0.7 481291012#5 481291012#5.49 481291012#7 481291012#7.20 8071924#0 8071924#0.13 8071924#1 8071924#1.18 8071924#1.30 6472293#6 6472293#6.106 795671506#0 795671506#0.46 6501822#9 6501822#9.6 6501822#10 -6464126#18 -6464126#18.45 -6464126#16 -6464126#16.47 -6464126#14 -6464126#14.50 6494975#2 243349338#5"/>
</vehicle>
<vehicle id = "veh14" type= "veh_passenger" depart="10815" >
<route edges =" 817434294 817434294.10 817434294.36 817434294.44 817434294.63 817434294.119 816616072#4 816616072#4.7 816616072#4.62 816616072#4.121 6430729#0 6430729#0.7 6430729#0.86 813722270#5 813722270#5.7 813722270#5.118 -158882495#1 -158882495#1.91 6346526#0 6346526#0.6 6346526#0.99 6346526#0.121 -337668916#3 -337668916#3.10 -337668916#3.49 -337668916#3.92 -6463013#2 -6463013#2.8 -6463013#2.38 -6463013#2.42 -6463013#2.60 -6463013#2.70 -6463013#2.90 428246435#0 428246435#0.10 428246433 428246433.72 428246432#0 428246432#0.13 171739214#8 171739214#9 171739214#10 6368665#0 6368665#0.4 6368665#0.6 6368665#0.48 -158882505#1 -158882505#1.37 -158882558 -896104580#1 -896104580#1.68 -428098979#1 -428098979#1.6 -428314461 -428314458 -428098983 -428098983.7 -428098980#1 -428098980#1.12 6464391#0 6464391#0.12 6464391#0.77 752851600#8 752851600#8.6 752851600#8.88 752851600#11 752851600#11.84 6346308#10 6346308#10.28 6346308#10.34 428098985#0 428098985#0.19 428314460 428314467 428314467.7 428098986 428098986.8 428098986.12 6470834 6470834.1 6470834.5 6470834.9 8071380#0 8071380#0.4 8071380#0.8 8071380#0.20 8071380#0.54 8071380#0.57 8071380#0.60 8071380#0.63 -158882561#3 61958425 -6368665#5 -6368665#5.9 -6368665#5.17 -6368665#5.26 -6368665#5.35 -6368665#5.53 -6368665#4 -6368665#4.121 158882517#1 6346524#2 158882511#3 158882511#4 158882511#5 158882511#5.46 158882511#5.58 158882511#8 -6469837#3 -6469837#2 -6469837#1 -6469837#1.51 -171739214#20 6403883#1 -158882505#6 -158882505#5 -158882505#5.47 -6411908#2 -6411908#2.56 171739214#14 -160552467#5 -160552467#5.18 -160552467#5.25 -160552467#5.30 -160552467#5.63 -160552467#5.85 -160552467#0 171739207#2 171739207#2.46 6403874#0 337668916#10 337668916#11 337668916#11.20 337668916#11.35 8071899 6384359#0 6384359#0.22 6384359#0.45 6384359#0.50 6505136#7 6505136#7.55 6505136#7.66 6505136#7.74 6505136#7.92 6505136#7.104 6505136#13 6505136#13.14 -8111708#2 -8111708#2.52 -8111708#2.57 -8111708#2.87 -8111708#2.90 -8111708#2.92 -8111708#2.94 -8111708#2.97 -8111708#2.99 6457203#8 6457203#8.18 6457203#8.28 6457203#8.74 6457203#8.81 6457203#8.98 8111707#0 8111707#0.47 6505136#15 6368504#5 6368504#5.48 6368504#7 6368504#7.50 -6513783#8 -170683231#20 -170683231#20.51 -170683231#18 -170683231#18.37 -170683231#18.49 336904472#5 336904472#5.77 638348589 -263666867#2 -263666867#2.43 -263666867#2.72 6381494#15 603522176#4 603522176#4.7 603522176#4.48 638348588#1 481291019#0 481291019#0.47 -476409334#1 -476409334#0 476409333#0 476409333#0.45 -6383185#11 -6383185#11.37 -6383185#11.86 -6383185#11.111 -6383185#11.155 -476409332#1 -476409332#1.39 791722143#0 791722143#0.9 791722143#1 -37657905#8 -37657905#8.49 -37657905#6 -37657905#6.50 -37657905#6.87 -37657905#4 -37657905#4.54 -6513783#6 -6513783#5 -6384359#7 -6384359#7.49 -6464042#2 -6464042#2.80 -6464042#1 -6464042#1.52 -292812445#4 -292812445#4.52 -65588093#3 -6430729#12 -6430729#12.49 8071898#2 -6343949#7 -65588100#1 -65588100#1.65 -826314455#3 -826314455#3.64 -826314455#3.71 -826314455#3.76 -826314455#3.90 -826314455#3.118 -349901821 -826314456#4 -826314456#4.12 -826314456#4.19 -826314456#4.65 -826314456#4.106 -337673339 -337673337 -337673338#1 -337673338#1.9 -395714916#1 -395714916#1.12 -568043367 -568043367.41 -568043367.79 -293775903#2 -293775903#2.10 -293775903#2.37 -293775903#2.89 -293775903#2.118 -475161306#1 -475161306#1.9 -475161306#1.92 -475161306#1.120 353690155#0 353690155#0.10 353690155#0.51 353690155#0.58 353690155#0.90 353690157#0 353690157#0.5 353690157#0.19 353690157#0.47 353690157#0.72 353690157#0.87 -353690147#3 -353690147#3.7 -353690147#3.110 -353690147#3.122 353690152#0 353690152#0.9 353690152#0.90 460419029#0 460419029#0.7 460419029#0.51 460419029#0.53 460419029#0.89 460419029#5 460419029#5.8 460419029#5.52 460419029#5.91 6440371#0 6440371#0.7 6440371#0.8 6440371#0.119 6440371#0.121 353690154#8 353690154#8.7 353690154#8.42 353690154#8.50 353690154#8.92 353690154#12 353690154#12.6 353690154#12.32 353690154#15 353690154#15.50 -6447971#10 -6447971#10.11 -486874837#1 -6481166#8 -6481166#8.162 -465971499#1 -465971499#1.88 -512168130#2 -512168130#2.10 -512168130#2.12 -512168130#2.65 -512168130#2.197 6467507#0 6467507#0.7 6467507#0.88 6467507#3 6467507#4 6467507#4.48 6467507#6 6467507#6.51 -6380913#5 -6380913#4 -6380913#3 -6380913#3.7 -6380913#3.66 -6380913#3.103 6385341#0 6385341#0.19 6385341#0.20 6385341#0.34 6385341#0.47 6385341#0.50 6385341#0.54 6385341#0.58 6385341#0.73 6385341#0.78 6385341#0.81 6385341#0.84 6385341#0.87 6385341#0.126 6385341#0.138 6384260#2 6384260#3 6384260#3.54 -6487445#4 -6487445#4.15 -6487445#4.55 -6487445#1 -6487445#1.78 256996976#3 256996976#3.7 256996976#3.76 460421482#0 460421482#0.8 460421482#0.73 6523501#0 6523501#0.9 6523501#0.105 169917351#22 169917351#22.7 169917351#22.72 6494970#3 6494970#3.7 185485127#2 185485127#2.70 336908264#2 336908264#2.29 336908264#3 428247197#0 428247197#0.12 -460421482#10 -460421482#10.13 -460421482#10.46 -460421482#10.56 -460421482#10.76 6358721#0 6358721#0.9 -6415147#3 -6415147#2 6449462#3 6449462#3.7 6449462#3.50 6449462#3.60 6449462#3.72 6449462#3.87 795669782#0 795669782#0.54 -6414318#0 -6414318#0.76 -6414318#0.81 460418987#0 460418987#0.4 460418987#0.8 -6414273#1 -6414273#1.22 -460418992#4 -460418992#4.6 -460418992#4.125 6371704#1 6371704#1.36 460418987#3 460418987#3.91 460418978#0 460418978#0.8 460418978#0.76 -795846818#1 -795846818#1.9 -795669782#3 6371720#2 6371720#3 157167355#0"/>
</vehicle>
<vehicle id = "veh15" type= "veh_passenger" depart="10815" >
<route edges =" -814326475#2 -814326475#2.9 -814326475#2.24 -814326475#2.41 -814326475#2.70 -814326475#2.91 -6456052#5 -6456052#5.10 -6456052#5.36 -6456052#5.120 -6456052#1 -6456052#1.10 -6456052#1.62 -607691082#1 -607691082#0 -6475815#3 -6475815#3.2 -6475815#3.17 -6475815#3.46 -428089348#3 -428089348#3.15 -428089348#3.21 -428089348#3.28 -428341218#2 -428341218#2.3 -428341218#2.9 -65588069#1 -65588069#1.13 -428089351#1 -428089351#1.16 -293753570#2 -293753570#2.9 -293753570#2.83 293753571#0 293753571#0.5 293753571#0.20 293753571#0.24 -353690151#2 -353690151#2.9 -353690151#2.22 -353690151#2.24 -353690151#2.39 -353690151#2.72 -353690151#2.92 -433500388#1 -433500388#1.11 -433500388#1.46 -433500388#1.73 -433500388#1.113 -433500388#1.115 -428088900#1 -428088900#1.10 -428088894#1 -428088894#1.25 -532166310#2 -532166310#2.3 -532166310#2.13 -369877039 -369877039.36 -369877039.55 -428088903#1 -428088903#1.15 428231018#0 428231018#0.12 428231018#0.30 465971497#0 465971497#0.10 465971497#0.34 369877037#0 369877037#0.9 369877037#0.83 -6516984#5 -6516984#5.11 -6516984#5.50 -6516984#5.92 -6502980#3 -6502980#3.7 -6502980#3.69 -6502980#3.84 347094711#0 347094711#0.7 347094711#0.20 347094711#0.38 347094711#0.50 347094711#0.69 347094711#0.73 347094711#0.74 347094712#0 347094712#0.21 65588108#0 65588108#0.15 65588108#0.50 6463530#0 6463530#0.2 6463530#0.8 6463530#0.13 6463530#0.54 6463530#0.95 -6456044#5 -6456044#5.7 -6456044#5.86 6467490#0 6467490#0.7 6467490#0.49 6467490#0.78 -401497115 -401497115.113 -401497115.170 -401497115.214 -537677478#2 -537677478#2.10 -537677478#2.11 -537677478#2.28 -537677478#2.36 -6456046#3 -6456046#3.6 -6456046#3.36 -6456046#3.42 -6456046#3.49 -6456046#3.56 -6456046#3.62 -6456046#3.66 -6456046#3.71 -6456046#3.76 -6456046#3.92 -6456046#3.102 -6456046#3.109 -6456046#3.112 440890310 440890310.65 425646003#0 425646003#0.15 6476922#0 6476922#0.13 6476922#0.24 6476922#0.37 6476922#0.60 6476922#0.67 6413383#0 6413383#0.1 6413383#0.3 6413383#0.6 6413383#0.18 6413383#0.26 6413383#0.47 428233432#0 428233432#0.11 428233432#0.22 -739874554#2 -739874554#2.15 -739874554#2.40 -739874554#2.60 -739874554#2.67 622519661 622519661.8 739874553#0 739874553#0.66 739874553#0.80 739874553#0.88 333370569#0 333370569#0.6 333370569#0.13 333370569#0.37 333370569#0.43 333370569#0.66 333370569#0.94 333370569#0.155 333370569#0.178 333370566#0 333370566#0.32 6405076#0 6405076#0.10 6405076#0.18 6405076#0.21 6405076#0.58 6405076#0.79 6405076#0.81 347092915#0 347092915#0.8 347092915#0.32 347092915#0.44 347092915#0.89 347092915#0.182 -6506833#10 -6506833#10.7 -6506833#10.19 -6506833#10.42 -6506833#10.46 -6506833#10.83 22917663#11 22917663#11.6 22917663#11.23 22917663#11.87 22917663#15 22917663#15.9 22917663#15.45 22917663#15.80 -243338978#3 -243338978#3.21 -243338978#3.34 -243338978#3.83 256996974#11 256996974#11.6 256996974#11.33 256996974#11.65 6481166#0 6481166#0.6 6481166#0.73 6481166#0.104 -169917351#3 -169917351#3.10 -169917351#3.45 -169917351#3.90 -901477545#9 -901477545#9.8 -901477545#9.86 6440364#4 6440364#4.6 6440364#4.86 901474739#7 901474739#7.8 901474739#7.82 6507809#0 6507809#0.7 6507809#0.88 6507809#3 6507809#4 -6515975#5 -6515975#5.48 -6515975#3 -6515975#3.6 -6515975#3.44 -6515975#3.102 6445835#0 6445835#0.41 -22917665#1 -22917665#1.88 881403606#4 881403606#4.53 881403608#2 881403608#2.2 881403608#2.5 881403608#2.8 881403608#2.11 881403608#3 881403608#3.2 881403608#3.5 881403608#3.8 881403608#3.11 976099002#0 976099002#0.34 976099002#0.40 976099002#0.64 965874292#7 965874292#7.8 965874292#7.41 965874292#10 965874292#10.35 965874292#12 965874292#12.8 965874292#12.69 158123767#0 158123767#0.10 158123767#0.11 158123767#0.50 158123767#0.74 158123767#0.86 158123767#0.115 158123767#0.122 158123767#0.134 158123767#0.139 158123767#0.166 795669781 795669781.52 795669781.56 460421481#1 460421481#1.61 460421481#1.85 -428247194#1 -428247194#1.9 -428247194#1.28 -157167355#3 -157167355#3.5 -157167355#3.43 -157167355#0"/>
</vehicle>
<vehicle id = "veh16" type= "veh_passenger" depart="14420" >
<route edges =" -813722269#3 -813722269#3.7 -813722269#3.48 -813722269#3.84 -813722269#3.86 569505974#0 569505974#0.10 569505974#0.37 816616073#0 816616073#0.78 813722270#0 813722270#0.7 813722270#0.42 813722270#0.74 813722270#0.75 813722270#0.121 6430729#3 6430729#3.9 6430729#3.48 -620762212#3 6343949#6 6343949#7 -8071898#2 6430729#11 6430729#11.51 -65588093#2 6343949#10 6343949#10.49 -6440348#10 -6440348#10.4 -6440348#10.6 -6440348#10.48 -6440348#10.83 620762218#3 620762218#3.7 525497324#3 525497324#4 525497324#4.15 525497324#4.73 525497324#4.88 -6430729#16 -6430729#16.50 6440348#14 6464042#0 6464042#0.76 6464042#2 6464042#2.9 6384359#6 6384359#6.48 -6513783#4 -6513783#4.21 -6513783#4.23 -6513783#4.43 -6513783#4.80 6463017#5 6463017#6 6463017#6.48 -6386837#0 -292812445#10 -292812445#10.48 -620762224#1 -620762224#0 343521145#0 343521145#0.47 343521145#0.69 337739267#0 337739267#1 -481291488#10 -481291488#10.44 -481291488#10.61 -481291488#10.85 -481291488#10.132 -481291488#10.142 -481291488#4 -481291488#4.47 40416132#0 40416132#0.19 460419011#3 243349944#8 243349944#9 -396055523#8 -396055523#8.8 243349945#0 243349945#0.6 243349945#0.83 243349945#3 243349945#3.5 243349945#3.45 243349945#3.49 -22917113#6 243349944#15 243349944#15.48 -185485132#9 -185485132#8 -185485132#8.81 -185485132#6 -185485132#6.52 243349338#3 243349338#3.49 6494975#3 6494975#3.99 6494975#5 6494975#5.50 6494975#7 6494975#8 -243349945#10 -243349945#10.46 185485132#11 185485132#11.115 805658294#0 805658294#0.38 805658294#0.52 805658294#2 805658294#2.39 805658294#4 805658294#4.48 6472289#4 336908262#2 336908262#2.49 336908262#4 336908262#4.6 -359671039#10 -359671039#10.86 -359671039#8 -359671039#8.55 243349945#18 532125609#3 808266757#0 808266757#0.7 808266757#1 263665040#4 263665040#4.7 263665040#4.17 263665040#4.26 263665040#4.35 263665040#4.44 263665040#4.53 263665040#4.62 263665040#4.71 263665040#4.80 6477474#0 6477474#0.14 6477474#0.21 6511939#0 6511939#0.25 6511939#0.34 6511939#0.44 6511939#0.53 6511939#0.62 6511939#0.72 6511939#0.81 6511939#0.90 6511939#0.100 6521060#2 6521060#2.16 6521060#2.23 6521060#2.28 6521060#2.33 6521060#2.38 6521060#2.49 6521060#2.53 6521060#2.58 6521060#2.64 6521060#2.69 6463022#5 6463022#5.5 6463022#5.11 6463022#5.15 6463022#5.29 6463022#7 6463022#7.24 6463022#7.39 6463022#7.50 8071849#3 243352637#0 243352637#1 243352637#1.16 243352637#1.33 243352637#1.49 243352637#1.68 -6344425#1 -6344425#1.37 -6344425#1.51 -6344425#1.108 -6344425#1.115 -6344425#1.134 -6345302#1 -6345302#1.12 -6345302#1.17 -6343958#3 6354200#1 -6430750#0 337698847#3 337698847#3.11 337698847#3.25 337698847#3.37 337698847#4 337698847#4.16 337698847#4.27 337698847#4.36 337698847#4.45 -336908261#1 -336908261#1.8 -336908261#1.34 -336908261#1.75 -32135618#2 -32135618#2.30 -6409627#1 -6409627#1.40 808266757#4 808266757#4.120 -336908257#9 -336908257#8 -336908257#7 -6447445#25 -6447445#25.7 -6447445#25.41 6409640#11 6409640#12 6409640#13 6409640#13.62 6409640#13.65 -6512824 -6512824.3 -6512824.8 -6512824.65 -6512824.72 -243349941#12 -243349941#12.7 -243349945#21 -243349945#20 -352434874#2 -243349944#27 -532125609#1 6447445#16 6447445#17 -460419010 -460419010.105 -460419010.122 -352434868 -352434868.9 -263665039 -263665039.32 -263665039.58 -263665039.72 -438895608#1 -438895608#0 -438895608#0.27 438895607 438895607.119 -6447445#13 -6447445#13.40 6472289#1 6472289#2 -243349945#14 -243349945#14.50 -243349942#0 -243349942#0.28 -22760521#3 -22760521#2 -22760521#2.81 -22760521#2.121 428246847#0 428246847#0.8 428246847#0.22 6386110#0 6386110#0.16 6386110#0.25 6386110#0.55 -243349338#6 -243349338#6.14"/>
</vehicle>
<vehicle id = "veh17" type= "veh_passenger" depart="14420" >
<route edges =" -816616074#1 -816616074#1.10 -816616074#1.14 -816616074#1.119 428341734#4 428341734#4.8 428246439#0 428246439#0.14 428246438#0 428246438#0.8 428246440#0 428246440#0.62 800744529#0 800744529#0.7 800744529#0.52 800744529#0.89 -349901821 -6476313#2 -6476313#2.11 -6476313#2.29 -6476313#2.98 -6476313#2.99 -6476313#2.103 -6476313#2.107 164418944#4 164418944#4.7 164418944#4.8 164418944#4.29 164418944#4.51 164418944#4.95 32135548#0 32135548#0.6 32135548#0.48 32135548#0.53 32135548#0.64 32135548#0.89 32135548#0.90 32135548#5 32135548#5.7 32135548#5.49 32135548#5.88 32135548#9 32135548#9.7 32135548#9.47 32135548#9.63 32135548#9.78 525497323#0 525497323#0.50 525497323#2 525497323#2.81 -481291488#2 -481291488#1 6464126#0 6464126#0.46 6464126#0.49 460419011#2 40416132#1 40416132#1.90 -801995081#2 -801995081#2.109 6464126#5 -460419028#3 243349338#0 243349338#0.18 6360256#4 6360256#5 6447445#3 6447445#3.51 -22917113#4 -22917113#3 -22917113#2 6464126#9 6464126#9.46 -185485132#3 -185485132#3.101 243339793#11 243339793#11.47 6494975#1 6494975#1.9 6494975#2 243349338#5"/>
</vehicle>
<vehicle id = "veh18" type= "veh_passenger" depart="14420" >
<route edges =" 817434294 817434294.10 817434294.36 817434294.44 817434294.63 817434294.119 816616072#4 816616072#4.7 816616072#4.62 816616072#4.121 816616072#8 816616072#8.6 816616072#8.121 158882495#0 158882495#0.6 6411908#0 -337668916#5 -337668916#5.44 -337668916#5.90 6346526#4 6346526#4.7 171739214#12 6346524#0 158882505#3 6411908#3 6411908#4 6411908#5 6411908#5.89 6411908#5.98 6411908#5.108 8071379#2 8071379#2.41 -160552467#10 -160552467#10.17 -160552467#10.28 -160552467#10.38 -160552467#9 158882517#4 158882517#5 -6469837#2 -158882505#7 -158882505#6 -160552467#7 -160552467#7.43 -160552467#7.73 -160552467#7.78 -160552467#5 -160552467#5.18 -160552467#5.25 -160552467#5.30 -160552467#5.63 -160552467#5.85 337668916#8 337668916#8.47 -6403874#0 -171739207#3 -171739207#3.48 -620762212#5 -620762212#5.7 -6430729#5 -6430729#5.49 -6430729#5.89 -813722270#4 -813722270#4.8 -813722270#4.54 -813722270#4.55 -813722270#4.87 -813722270#4.122 -816616073#1 -816616073#1.7 -569505974#1 -569505974#1.6 -569505974#1.33 -569505976#2 -569505976#2.9 -569505976#2.88 -569505976#2.115 -569505976#2.119 -569505978#1 -569505978#1.10 -569505979 -569505979.32 -569505979.79 -395714916#1 -395714916#1.12 -568043367 -568043367.41 -568043367.79 893866065#0 893866065#0.10 893866065#0.66 893866065#0.92 -243338979#25 -243338979#25.8 -243338979#25.64 -243338979#25.77 -243338979#25.120 -243338979#20 -243338979#20.7 -243338979#20.121 -243338979#17 -243338979#17.7 -243338979#17.60 -243338979#17.109 -243338979#17.118 -243338979#17.120 -243338979#12 -243338979#12.10 -243338979#12.11 -243338979#12.62 -243338979#9 -243338979#9.5 -243338979#9.31 6494871#0 6494871#0.10 6494871#0.90 -436480245#0 -436480245#0.21 -436480245#0.32 -436480245#0.59 -436480243#3 -436480243#3.10 -436480243#3.19 -436480243#3.38 -6435230#9 6376376#0 6376376#0.9 6376376#0.35 6376376#0.88 6376376#0.97 6376376#4 6376376#4.5 6376376#4.86 -6476327#11 893868547#0 893868547#0.8 893868547#0.91 893868546#0 893868546#0.7 893868546#0.194 353690149#0 353690149#0.9 353690149#0.132 353690149#0.196 893866055#0 893866055#0.7 893866055#0.120 893866055#0.121 893866059#0 893866059#0.8 893866059#0.9 893866059#0.122 893866064#0 893866064#0.7 893866064#0.122 293775902#0 293775902#0.7 293775902#0.52 293775902#0.90 293775902#4 293775902#4.6 293775902#4.49 293775902#4.88 293775902#8 293775902#8.6 293775902#8.49 293775902#8.91 -6512920#7 -6512920#7.4 -6512920#7.122 -6512920#7.124 6464138#12 6464138#12.51 -6481166#10 -6481166#10.6 -6481166#10.8 -6481166#10.120 -6481166#9 -6481166#9.8 486874837#1 -6447971#9 6425689#0 6425689#0.48 -460419007#0 -460419007#0.17 -460419007#0.46 -263669069#2 -263669069#2.25 -263669069#2.47 -263669069#2.55 -6447971#7 6463532#0 6463532#0.49 6463532#2 6463532#2.50 6463536#0 6463536#0.21 6463536#0.30 6463536#0.40 6463536#0.47 6463536#0.52 6463536#0.58 6463536#0.69 6463536#0.79 6463536#0.80 -6516509#3 -6516509#3.4 -6516509#3.8 -6516509#3.23 -6516509#3.47 -6516509#3.67 -6516509#3.83 -6516509#3.106 -460419024#7 -460419024#7.10 -460419024#7.16 -460419024#7.29 -6425675 6380913#13 6380913#14 801995082 243339793#4 243339793#5 243339793#6 243339793#6.50 243339793#6.74 -22917112 -185485118#1 -185485118#0 -185485118#0.55 -185485118#0.102 -185485118#0.141 -6467507#14 -6467507#14.73 -6467507#12 -6467507#12.14 -6467507#12.24 -6467507#12.91 6516509#8 6516509#8.7 6516509#8.85 6516509#11 6516509#11.6 6516509#11.34 6516509#11.86 6516509#15 6516509#15.7 6516509#15.35 6516509#15.48 6516509#15.68 6516509#15.70 6516509#15.79 6516509#15.84 6516509#15.98 6516509#15.101 6461236#0 6461236#0.9 6461236#0.24 6461236#0.44 6461236#0.58 6461236#0.60 6384260#3 6384260#3.54 -6487445#4 -6487445#4.15 -6487445#4.55 6415147#0 6415147#0.61 6415147#2 -6497081#1 -6497081#1.80 6523501#0 6523501#0.9 6523501#0.105 6523501#3 6523501#3.6 6523501#5 6523501#5.201 926425191#0 926425191#0.5 926425191#2 926425191#3 926425191#4 926425191#4.20 -6472293#3 -6472293#2 -6507813#0 -6391682#1 -6391682#1.146 -256996977#2 -256996977#2.16 -256996977#2.48 -428247197#1 -428247197#1.9 -336908264#3 -169917351#27 -169917351#27.11 -169917351#27.76 -6494970#2 -6494970#2.4 -6494970#2.100 6358721#0 6358721#0.9 6415147#4 -428247193#2 -428247193#2.56 -428247193#2.61 -428247193#2.96 -428247193#2.117 -428247193#2.121 -428247193#2.140 -428247193#2.154 -428247195 -428247195.5 -428247194#1 -428247194#1.9 -428247194#1.28 -157167355#3 -157167355#3.5 -157167355#3.43 -6414318#3 -6414318#2 -6414318#2.8 -6414318#0 -6414318#0.76 -6414318#0.81 460418987#0 460418987#0.4 460418987#0.8 460418987#1 460418987#2 460418987#3 460418987#3.91 22917667#0 22917667#0.7 22917667#0.103 -22917670#6 -22917670#6.8 -22917670#6.44 -22917670#6.72 -337742188#8 -337742188#8.6 -337742188#8.83 -337742188#8.106 -337742188#8.123 -337742188#8.140 -337742188#8.159 22917673#2 22917673#2.9 22917673#2.36 22917673#2.81 22917673#5 22917673#5.15 22917673#5.76 481291011#0 481291011#0.6 481291011#0.65 481291010#0 481291010#0.19 481291010#0.23 481291010#0.30 481291010#0.133 481291010#3 481291010#3.6 481291010#3.100 369455641#1 369455641#1.28 369455641#1.78 -512126023#7 -512126023#7.8 -512126023#7.19 -512126023#7.31 -512126023#7.44 -512126023#7.91 -512126023#7.107 -512126023#7.111 -512126023#7.245 -512126023#2 -512126023#2.37 -512126023#2.47 -512126023#0 -428247196#1 -428247196#1.16 428100741#0 428100741#0.10 -754699003#6 -754699003#6.36 -6351337#5 -6351337#5.5 -6351337#5.8 -6351337#5.119 6496652#4 6496652#4.7 6367253#5 -754699003#2 -754699003#2.70 -754699003#0 -259278406#0 -22917677#2 -22917677#2.4 -22917677#2.10 -22917677#2.39 -6496652#8 -6496652#8.7 -22917678#2 -22917678#2.8 -22917678#2.134 -6485999#2 -6351337#0 -6467368#0 -185483738#2 -185483738#2.93 -6371720#5 -6371720#5.41 157167355#0"/>
</vehicle>
<vehicle id = "veh19" type= "veh_passenger" depart="14420" >
<route edges =" -814326475#2 -814326475#2.9 -814326475#2.24 -814326475#2.41 -814326475#2.70 -814326475#2.91 -723013181#2 -723013181#2.9 -723013181#2.18 -723013181#2.38 -723013181#0 -332601014#3 -332601014#3.31 -332601014#3.36 -332601014#3.42 -428246441#2 -428246441#2.2 -428246441#2.10 -723013876#1 -723013876#1.12 -723013876#1.18 -723013877 -158612542#7 -158612542#7.55 -158612542#7.79 -158612542#7.121 -158612542#5 -158612542#5.11 -158612542#5.64 -158612542#5.73 -158612542#5.81 -158612542#5.114 -165086027#1 -165086027#1.2 -165086027#1.5 -759056491 -759056491.4 -759056491.8 -759056491.13 -759056491.17 -759056491.21 -759056491.26 -759056491.41 -759056491.81 -759056491.83 -759056491.88 -337673342#5 -337673342#5.3 -337673342#5.9 -337673342#5.13 -337673342#5.21 -337673342#5.35 -337673342#5.72 -607691082#1 -607691082#0 -6475815#3 -6475815#3.2 -6475815#3.17 -6475815#3.46 -428089348#3 -428089348#3.15 -428089348#3.21 -428089348#3.28 -353690151#5 -353690151#5.11 -353690151#5.12 -353690151#5.26 -353690151#5.83 -353690151#5.102 -293753571#3 -293753571#3.3 -293753571#3.7 -293753571#3.21 -369877031#7 -369877031#7.10 -369877031#7.98 -369877031#7.191 -749622503#8 -749622503#8.7 -749622503#8.63 -749622503#8.83 -749622503#4 -749622503#4.84 -749622503#2 -749622503#2.9 -749622503#2.29 -749622503#2.64 -749622503#2.84 532166310#0 532166310#0.43 532166310#0.52 -428088883#1 -428088883#1.15 -428088897 -428088888 -737711647 -332223490#1 -332223490#1.19 -465971498#3 -465971498#3.2 -465971498#3.3 -465971498#3.5 -465971498#3.7 -465971498#3.10 -465971498#3.34 -465971498#3.84 369877037#0 369877037#0.9 369877037#0.83 537686684#0 537686684#0.43 537686684#0.53 -332223489#3 -332223489#3.4 -332223489#3.15 -332223489#3.17 -332223489#3.21 -401497115 -401497115.113 -401497115.170 -401497115.214 -428233435 -460425668 -460425668.5 -6457806#2 -6457806#2.21 -6457806#2.25 -6457806#2.30 6465162#0 6465162#0.2 6465162#0.6 6465162#0.11 6465162#0.36 428233434 428233434.31 428233434.58 332223487#0 332223487#0.16 332223487#0.62 332223487#0.98 332223488 332223488.25 332223488.48 332223488.65 332223488.68 332223488.88 347092907#0 347092907#0.3 347092907#0.13 347092907#0.19 347092907#0.26 347092907#0.31 347092907#0.38 347092907#0.40 347092907#0.45 347092907#0.51 332223494#0 332223494#0.18 332223494#0.35 332223494#0.144 332223494#0.171 6506833#15 6506833#15.8 6506833#15.10 6506833#15.35 6506833#18 6506833#18.45 -749863323#3 -749863323#3.10 -749863323#3.85 -749863323#3.126 792010738#0 792010738#0.4 792010738#0.9 792010738#0.19 -749863325#1 -749863325#1.6 -749863325#1.16 -749863325#1.39 -749863325#1.43 -749863325#1.51 -749863325#1.75 -749863325#1.82 -749863325#1.101 -749863325#1.117 -749863325#1.139 -749863325#1.157 -749863325#1.165 -749863325#1.172 -749863325#1.175 -749863325#1.187 -749863325#1.189 -749863325#1.199 -749863325#1.212 -749863325#1.248 -749863325#1.271 500021854#0 500021854#0.9 500021854#0.38 500021854#0.82 6477649#6 6477649#6.9 6477649#6.30 6477649#6.32 6477649#6.45 6477649#6.63 6477649#6.92 6477649#6.106 6477649#6.147 6477649#6.175 6477649#6.199 6477649#6.205 6477649#6.230 6477649#6.286 6477649#6.306 6477649#6.322 792010743#2 792010743#2.11 792010743#2.16 6371699#0 6371699#0.9 -6506833#28 -6506833#28.6 -6506833#28.45 -6506833#28.63 -6506833#28.85 263712957#13 263712957#13.7 263712957#13.54 263712957#13.186 844067888#0 844067888#0.8 844067888#0.63 844067888#0.137 844067888#0.187 -6388742#11 -6388742#11.8 -6388742#11.30 -6388742#11.46 -6388742#11.67 -6388742#11.87 -6388742#5 -6388742#5.6 -6388742#5.38 -49394452#10 -49394452#10.8 -49394452#10.188 -965874293#1 -965874293#1.6 -965874293#1.37 965874292#0 965874292#0.8 965874292#0.88 -22917664#2 -22917664#2.11 -22917664#2.76 881403607#0 881403607#0.25 881403607#0.42 881403608#3 881403608#3.2 881403608#3.5 881403608#3.8 881403608#3.11 976099002#0 976099002#0.34 976099002#0.40 976099002#0.64 965874292#7 965874292#7.8 965874292#7.41 965874292#10 965874292#10.35 965874292#12 965874292#12.8 965874292#12.69 158123767#0 158123767#0.10 158123767#0.11 158123767#0.50 158123767#0.74 158123767#0.86 158123767#0.115 158123767#0.122 158123767#0.134 158123767#0.139 158123767#0.166 795669782#0 795669782#0.54 795669782#2 6371720#2 -6497081#8 6414318#3 -157167355#0"/>
</vehicle>
<vehicle id = "veh20" type= "veh_passenger" depart="18025" >
<route edges =" -813722269#3 -813722269#3.7 -813722269#3.48 -813722269#3.84 -813722269#3.86 569505974#0 569505974#0.10 569505974#0.37 816616073#0 816616073#0.78 813722270#0 813722270#0.7 813722270#0.42 813722270#0.74 813722270#0.75 813722270#0.121 6430729#3 6430729#3.9 6430729#3.48 -620762212#3 6343949#6 65588100#2 65588100#2.20 65588100#2.57 6430729#9 6430729#9.48 8071898#2 6343949#8 6343949#8.52 6343949#10 6343949#10.49 6343949#12 6343949#12.47 -525497324#3 620762218#5 620762218#5.18 620762218#5.80 -66558981#7 -66558981#7.65 -66558981#7.83 -66558981#7.105 -66558981#7.123 243349944#6 243349944#7 460419011#4 337739269#1 337739269#1.30 481291013#0 481291013#0.16 481291013#0.30 481291013#0.70 481291013#0.75 481291013#0.79 481291013#0.109 481291013#0.113 -481291015#1 -481291015#1.3 -481291015#1.42 6444677 8071925#0 8071925#0.9 8071925#0.55 8071925#2 8071925#2.36 8071925#2.74 6460085#0 6460085#0.9 6460085#0.43 6460085#0.101 -6384373#1 6383185#5 -476409329 -791722143#1 -170683231#11 -170683231#11.43 6383185#7 476409332#2 476409332#2.43 6460085#7 6460085#7.14 6460085#7.41 6460085#9 6460085#9.41 6460085#9.71 6523125#0 -65588097#9 -65588097#8 -65588097#8.39 -65588097#6 170683231#7 -6460085#5 -6460085#5.109 -6460085#4 -6460085#4.20 6464374 -65588097#3 -65588097#3.73 6384373#5 6384373#5.40 6384373#5.50 6384373#5.90 6448612#6 6448612#6.328 6448612#8 476409332#6 476409332#7 -6356667#2 -6356667#1 -6356667#1.147 -6356667#1.181 -428315591#1 -428315591#0 -428315592#5 -428315592#4 -428315592#4.102 -428315592#4.134 -428315592#2 -428315592#2.25 -428315592#2.67 -428315592#2.108 -460421484#1 -460421484#1.13 -854082601 -854082601.46 -854082601.87 -169730574#1 -169730574#1.5 -169730574#1.6 -169730574#1.24 92170540#0 92170540#0.10 396055523#1 396055523#1.42 396055523#1.177 396055523#1.183 396055523#5 396055523#5.8 396055523#5.42 396055523#7 396055523#7.122 396055523#9 396055523#9.6 396055523#9.20 396055523#9.54 6447445#0 6447445#0.8 6447445#0.87 -6360256#5 256994205#0 256994205#0.67 256994205#1 256994205#2 256994205#2.24 256994205#2.72 256994205#3 428246847#0 428246847#0.8 428246847#0.22 6386110#0 6386110#0.16 6386110#0.25 6386110#0.55 -243349338#6 -243349338#6.14"/>
</vehicle>
<vehicle id = "veh21" type= "veh_passenger" depart="18025" >
<route edges =" -816616074#1 -816616074#1.10 -816616074#1.14 -816616074#1.119 428341734#4 428341734#4.8 428246439#0 428246439#0.14 428246438#0 428246438#0.8 428246440#0 428246440#0.62 -800744528#1 -800744528#1.8 -800744528#1.16 -800744528#1.37 -800744528#1.72 826314456#0 826314456#0.9 826314456#0.50 826314456#0.96 826314456#0.103 349901822#0 349901822#0.9 96029553#0 96029553#0.9 96029553#0.15 96029553#0.59 -893866066#2 -893866066#2.7 -893866066#2.122 -353690150#2 -353690150#2.8 -353690150#2.144 293775902#0 293775902#0.7 293775902#0.52 293775902#0.90 -22917111#19 -22917111#19.8 -22917111#19.123 -22917111#19.125 -22917111#19.126 6464138#4 6464138#4.6 6464138#4.51 6464138#4.88 6464138#8 6464138#8.7 6464138#8.49 6464138#8.88 6464138#12 6464138#12.51 6481166#11 6481166#11.4 6481166#11.7 6481166#12 525497323#2 525497323#2.81 40416132#0 40416132#0.19 -460419011#2 6464126#3 6464126#3.49 -801995081#0 243339793#4 243339793#5 6360256#1 6360256#1.7 6464126#7 6464126#7.50 6464126#9 6464126#9.46 185485132#4 243349338#3 243349338#3.49 243349338#5"/>
</vehicle>
<vehicle id = "veh22" type= "veh_passenger" depart="18025" >
<route edges =" 817434294 817434294.10 817434294.36 817434294.44 817434294.63 817434294.119 6343949#0 6343949#0.7 6343949#0.86 -816616073#1 -816616073#1.7 -569505974#1 -569505974#1.6 -569505974#1.33 -569505976#2 -569505976#2.9 -569505976#2.88 -569505976#2.115 -569505976#2.119 -569505978#1 -569505978#1.10 -569505979 -569505979.32 -569505979.79 -395714916#1 -395714916#1.12 -568043367 -568043367.41 -568043367.79 893866065#0 893866065#0.10 893866065#0.66 893866065#0.92 -243338979#25 -243338979#25.8 -243338979#25.64 -243338979#25.77 -243338979#25.120 893866060#4 893866060#4.6 893866060#4.48 893866060#4.89 -353690148#3 -353690148#3.7 -353690148#3.59 -353690148#3.121 893866056#0 893866056#0.8 893866056#0.64 893866056#0.88 353690154#0 353690154#0.7 353690154#0.49 353690154#0.90 353690154#4 353690154#4.6 353690154#4.49 353690154#4.54 353690154#4.87 353690154#8 353690154#8.7 353690154#8.42 353690154#8.50 353690154#8.92 353690154#12 353690154#12.6 353690154#12.32 -6481166#9 -6481166#9.8 -486874837#0 -901419468#4 -901419468#4.51 -901419468#4.132 -901419468#4.164 -901419468#4.186 -901419468#4.196 -901419468#4.197 -901419467#2 -901419467#2.9 -901419467#2.49 -901419467#2.54 -901419467#2.71 -901419467#2.91 -876005345#4 -876005345#4.10 -876005345#4.11 -876005345#4.20 -876005345#4.33 -876005345#4.199 901474741#0 901474741#0.6 901474741#0.85 901474741#0.87 -901474742#2 -901474742#2.5 -901474742#2.43 -901474742#2.83 6507809#0 6507809#0.7 6507809#0.88 -6481166#4 169917351#4 169917351#4.51 6447971#4 6447971#5 -6467507#3 6481166#6 263669069#0 6447971#8 6425689#0 6425689#0.48 460419007#1 460419007#1.26 460419013#0 460419013#0.51 481291014#0 481291014#0.53 460419024#0 460419024#0.9 460419024#0.19 460419024#0.34 460419024#0.53 460419024#0.102 -6425675 -6380913#12 -6380913#11 -6380913#11.53 -6380913#7 -6380913#7.22 6467507#8 6467507#8.87 6516509#8 6516509#8.7 6516509#8.85 -6507809#9 -6507809#9.9 -6507809#9.50 -6380913#4 169917351#9 169917351#9.48 169917351#9.87 169917351#12 169917351#12.9 169917351#12.42 169917351#12.90 6360239#4 6360239#4.5 6360239#4.44 6360239#4.86 6507809#13 6507809#13.9 6507809#13.77 -6452520#5 -6452520#5.4 -6452520#5.85 -6452520#2 -6452520#2.4 -6452520#2.101 6449462#0 6449462#0.9 6449462#0.46 6415147#2 6497081#2 6497081#2.38 6497081#2.47 6497081#2.53 6497081#2.60 6497081#2.67 6497081#2.70 6497081#2.74 6497081#2.81 6497081#2.120 6497081#6 6497081#6.44 6497081#8 6371720#3 157167355#0"/>
</vehicle>
<vehicle id = "veh23" type= "veh_passenger" depart="18025" >
<route edges =" -814326475#2 -814326475#2.9 -814326475#2.24 -814326475#2.41 -814326475#2.70 -814326475#2.91 -6456052#5 -6456052#5.10 -6456052#5.36 -6456052#5.120 -6456052#1 -6456052#1.10 -6456052#1.62 -607691082#1 6501701#2 6501701#2.50 6501701#2.60 -6475815#4 -6475815#3 -6475815#3.2 -6475815#3.17 -6475815#3.46 -428089348#3 -428089348#3.15 -428089348#3.21 -428089348#3.28 332223491#0 332223491#0.12 6438604#0 6438604#0.3 6438604#0.6 6438604#0.8 6438604#0.10 6438604#0.11 6438604#0.13 6438604#0.44 6438604#0.60 -22927969#14 -22927969#14.8 -22927969#14.47 -22927969#14.89 293753570#6 293753570#6.10 293753570#6.38 293753570#6.84 293753570#6.86 -368560864#2 -368560864#2.7 -368560864#2.11 -368560864#2.84 -368560864#2.86 -368560864#2.88 -6462029#17 -6462029#17.2 -6462029#17.5 -6462029#17.7 -6462029#17.45 -6462029#17.88 6511397#11 6511397#11.8 6511397#11.56 6511397#11.64 6511397#11.66 6511397#11.68 6511397#11.71 6511393#0 6511393#0.4 -723052303 -568586006 -568586005 -568586003 -568586003.29 -568586003.32 -568586003.36 -568586003.39 -568586003.43 -568586003.46 -568586003.50 -568586003.65 -749622503#35 -749622503#35.9 -749622503#35.13 -749622503#35.52 -749622503#35.58 -749622503#35.118 -749622503#35.124 -749622503#30 -749622503#30.5 -749622503#30.9 -749622503#30.79 -749622503#30.85 -749622503#30.120 -6462029#9 -6462029#9.9 -6462029#9.87 532416982#0 532416982#0.9 428231024#0 428231024#0.38 -759056694#16 -759056694#16.8 -759056694#16.23 -759056694#16.28 -759056694#16.42 -759056694#16.60 -759056694#16.85 -759056694#10 -759056694#10.10 -759056694#10.50 -759056694#10.73 -759056694#10.89 -6511397#7 -6511397#7.8 -6511397#7.39 -6511397#7.86 -22927969#6 -22927969#6.8 -22927969#6.48 -22927969#6.90 -749622503#18 -749622503#18.7 -749622503#18.55 -749622503#18.81 -749622503#15 -749622503#15.9 -749622503#15.31 -749622503#15.46 -749622503#15.51 -749622503#15.67 -749622503#15.85 -749622503#8 -749622503#8.7 -749622503#8.63 -749622503#8.83 -749622503#4 -749622503#4.84 369877024#3 369877024#3.6 369877024#3.87 369877024#3.91 369877024#3.98 369877024#3.100 369877024#3.103 369877024#3.104 -428088900#1 -428088900#1.10 -428088894#1 -428088894#1.25 -532166310#2 -532166310#2.3 -532166310#2.13 -6522514#4 -6522514#4.7 -6522514#4.36 -6522514#4.61 -6522514#4.66 -6522514#4.67 -6522514#4.73 -332223490#1 -332223490#1.19 6514305#0 6514305#0.3 6514305#0.4 6514305#0.9 6514305#0.14 6514305#0.34 6514305#0.54 353690159#1 353690159#1.50 353690159#1.92 -6343878#11 -6343878#11.8 -6343878#11.104 6463530#10 6463530#10.5 6463530#10.49 6463530#10.87 -6435230#7 -6435230#7.4 -6435230#7.24 -6435230#7.64 -347094714#7 -347094714#7.12 -347094714#7.50 -347094714#7.93 -347094714#3 -347094714#3.9 -347094714#3.49 -347094714#3.92 6467490#0 6467490#0.7 6467490#0.49 6467490#0.78 -401497115 -401497115.113 -401497115.170 -401497115.214 -428233435 -460425668 -460425668.5 -6457806#2 -6457806#2.21 -6457806#2.25 -6457806#2.30 6465162#0 6465162#0.2 6465162#0.6 6465162#0.11 6465162#0.36 428233434 428233434.31 428233434.58 -739874554#2 -739874554#2.15 -739874554#2.40 -739874554#2.60 -739874554#2.67 622519661 622519661.8 739874553#0 739874553#0.66 739874553#0.80 739874553#0.88 333370569#0 333370569#0.6 333370569#0.13 333370569#0.37 333370569#0.43 333370569#0.66 333370569#0.94 333370569#0.155 333370569#0.178 333370566#0 333370566#0.32 6405076#0 6405076#0.10 6405076#0.18 6405076#0.21 6405076#0.58 6405076#0.79 6405076#0.81 6405076#3 6405076#3.4 6405076#3.8 6405076#3.14 6405076#3.20 6405076#3.50 6405076#3.68 6405076#3.84 6405076#6 6405076#6.6 6405076#6.21 6405076#6.26 6405076#6.33 6405076#6.44 6405076#6.49 6405076#6.65 6405076#6.68 6405076#6.71 6405076#6.77 6405076#6.79 6405076#6.82 6405076#6.87 256996971#0 256996971#0.7 256996971#0.23 256996971#0.32 256996971#0.37 256996971#0.85 256996974#0 256996974#0.8 256996974#0.88 6506833#0 6506833#0.9 6506833#0.37 6506833#0.54 6506833#0.84 22917663#11 22917663#11.6 22917663#11.23 22917663#11.87 6465130#3 6465130#3.8 6465130#3.46 6465130#3.84 347092915#10 347092915#10.9 347092915#10.68 347092915#10.90 243338978#7 243338978#7.8 243338978#7.38 243338978#7.45 243338978#7.74 965874293#0 965874293#0.9 965874293#0.40 965874293#2 965874293#2.45 760645197#0 760645197#0.6 760645197#0.45 760645197#0.84 844067888#0 844067888#0.8 844067888#0.63 844067888#0.137 844067888#0.187 263712958#0 263712958#0.8 263712958#0.45 263712958#0.101 263712958#0.114 263712958#0.117 263712958#0.119 6445479#0 6445479#0.4 6445479#0.8 6445479#0.186 965874292#10 965874292#10.35 965874292#12 965874292#12.8 965874292#12.69 158123767#0 158123767#0.10 158123767#0.11 158123767#0.50 158123767#0.74 158123767#0.86 158123767#0.115 158123767#0.122 158123767#0.134 158123767#0.139 158123767#0.166 795669781 795669781.52 795669781.56 460421481#1 460421481#1.61 460421481#1.85 256997441#0 256997441#0.11 256997441#0.18 256997441#0.62 14374224#4 14374224#4.44 14374224#4.54 14374224#4.84 14374224#4.122 -6414318#4 -157167355#0"/>
</vehicle>
<vehicle id = "veh24" type= "veh_passenger" depart="21630" >
<route edges =" -813722269#3 -813722269#3.7 -813722269#3.48 -813722269#3.84 -813722269#3.86 569505974#0 569505974#0.10 569505974#0.37 816616073#0 816616073#0.78 6343949#3 6343949#3.9 6343949#3.49 -620762212#2 -620762212#2.76 -620762212#2.120 57883609#0 57883609#0.6 57883609#0.57 65588100#0 65588100#0.63 65588100#2 65588100#2.20 65588100#2.57 65588100#5 65588100#5.122 171739207#4 171739207#4.40 171739207#4.43 171739207#4.47 171739207#4.50 171739207#4.52 171739207#4.54 171739207#4.77 171739207#4.80 171739207#4.82 171739207#4.85 171739207#4.87 171739207#4.90 171739207#4.113 292812445#0 292812445#0.35 292812445#0.50 -65588093#3 -65588093#2 -65588093#1 -65588093#1.103 -65588093#1.123 -65588093#1.126 -65588093#1.130 739843348#0 739843348#0.4 739843348#0.9 620762218#0 620762218#0.55 620762218#0.66 620762218#0.68 620762218#0.81 -6440348#7 -6440348#7.9 243349944#0 243349944#0.4 243349944#0.20 243349944#0.49 525497324#2 620762218#5 620762218#5.18 620762218#5.80 343521145#0 343521145#0.47 343521145#0.69 337739267#0 337818462 337818462.3 337818462.6 337739271#1 337739271#1.6 337739269#0 337739269#1 337739269#1.30 337739269#3 337739269#3.69 -396055523#4 -396055523#4.9 -396055523#4.15 -396055523#4.150 243334881#0 243334881#0.7 243334881#0.57 243334881#0.96 6486416#0 6486416#0.9 6486416#0.116 460421484#0 460421484#0.12 6463035#0 6463035#0.14 6463035#0.38 -6448612#1 -6448612#1.133 -22917113#10 -22917113#10.7 -22917113#10.129 -22917113#10.132 -22917113#7 -22917113#7.10 -22917113#7.19 243349945#6 243349945#6.48 243349945#6.88 -185485132#10 243349944#17 243349944#17.50 243349944#19 243349944#19.47 243349942#0 243349942#0.100 243349942#1 243349942#1.25 805658294#4 805658294#4.48 6472289#4 6349133#0 6349133#1 170683665#7 6353867#0 40416130#2 -6353172#0 170683665#10 170683665#10.11 170683665#13 -6369950#2 -6369950#2.24 -6463035#14 -6521828#3 -6521828#3.7 -6521828#3.107 -6521828#3.133 -336908262#5 -336908262#5.80 -160624558#4 -160624558#4.98 -160624558#2 243349945#17 -359671039#6 -359671039#5 -359671039#5.121 -6447445#14 -6447445#13 -6447445#13.40 -6447445#11 -22760521#2 -22760521#2.81 -22760521#2.121 428246847#0 428246847#0.8 428246847#0.22 6386110#0 6386110#0.16 6386110#0.25 6386110#0.55 -243349338#6 -243349338#6.14"/>
</vehicle>
<vehicle id = "veh25" type= "veh_passenger" depart="21630" >
<route edges =" -816616074#1 -816616074#1.10 -816616074#1.14 -816616074#1.119 428341734#4 428341734#4.8 428246439#0 428246439#0.14 428246438#0 428246438#0.8 428246440#0 428246440#0.62 800744529#0 800744529#0.7 800744529#0.52 800744529#0.89 825336588#0 825336588#0.7 349901822#2 349901822#2.21 332092195#0 332092195#0.9 332092195#0.74 -22917111#30 -22917111#30.9 -22917111#30.50 -22917111#30.96 -22917111#26 -22917111#26.7 -22917111#26.41 -22917111#26.121 32135548#5 32135548#5.7 32135548#5.49 32135548#5.88 -6440371#11 -6440371#11.12 -6440371#11.144 293775902#8 293775902#8.6 293775902#8.49 293775902#8.91 293775902#12 293775902#12.3 293775902#12.50 6481166#12 66558981#0 66558981#0.29 66558981#0.132 243349944#6 243349944#7 243349944#8 -801995081#5 -801995081#5.197 -801995081#5.209 256994206#0 256994206#0.8 256994206#0.43 256994206#0.60 460419028#0 460419028#0.11 460419028#0.49 460419028#0.79 460419028#0.95 243349338#0 243349338#0.18 243349338#1 243349338#2 -185485132#4 -6464126#10 -6464126#10.50 -6464126#8 -6464126#8.50 -6464126#6 460419028#4 460419028#5 460419028#5.67 460419028#5.79 460419028#5.105 353690153#0 353690153#0.8 353690153#0.25 353690153#0.87 486875123#0 486875123#0.56 486875123#0.88 481291012#0 481291012#0.24 481291012#0.32 -185485132#1 -185485132#1.196 -6523501#6 -6523501#6.6 185485127#1 6494970#5 6494970#5.205 6494970#7 6494975#0 6494975#0.105 243339793#13 243339793#13.49 243339793#15 243339793#15.46 -6472293#6 -6472293#6.7 -6472293#5 -6472293#5.39 185485117#1 185485117#2 6396312#3 6396312#3.157 259277920#0 259277920#0.29 259277920#0.47 259277920#1 6506505#4 -6336174#4 -6336174#3 -6336174#3.40 359671039#1 359671039#2 -243349338#9 -6501822#12 -6501822#11 -6464126#18 -6464126#18.45 -6464126#16 -6464126#16.47 -6464126#14 -6464126#14.50 6494975#2 243349338#5"/>
</vehicle>
<vehicle id = "veh26" type= "veh_passenger" depart="21630" >
<route edges =" 817434294 817434294.10 817434294.36 817434294.44 817434294.63 817434294.119 6343949#0 6343949#0.7 6343949#0.86 -816616073#1 -816616073#1.7 -569505974#1 -569505974#1.6 -569505974#1.33 620762213#0 620762213#0.9 620762213#0.88 -800744530#5 -800744530#5.9 -800744530#5.19 -800744530#5.73 -800744530#5.84 -800744530#5.118 -800744528#1 -800744528#1.8 -800744528#1.16 -800744528#1.37 -800744528#1.72 -337673339 -337673337 185882764 185882764.13 185882764.14 185882765 185882765.16 185882765.26 185882765.30 185882765.31 395933841 164418944#0 164418944#0.13 164418944#0.18 164418944#0.32 164418944#0.39 -353690148#9 -353690148#9.7 -353690148#9.10 -353690148#9.12 -353690148#9.13 -353690148#9.38 -353690148#9.143 -353690148#6 -353690148#6.8 -353690148#6.122 893866060#8 893866060#8.7 893866060#8.65 893866060#8.89 6464138#0 6464138#0.7 6464138#0.53 6464138#0.92 -22917111#16 -22917111#16.4 -22917111#16.5 -22917111#16.7 -22917111#16.120 -22917111#16.122 -22917111#13 -22917111#13.8 -22917111#13.10 -22917111#13.79 -22917111#13.80 -22917111#13.98 -22917111#13.123 460419029#5 460419029#5.8 460419029#5.52 460419029#5.91 460419029#9 460419029#9.7 460419029#9.45 486874837#0 6481166#9 6481166#9.121 353690154#15 353690154#15.50 243339793#0 243339793#0.48 460419011#1 460419011#1.11 6464126#3 6464126#3.49 6464126#5 460419028#4 243339793#5 -6360256#0 -6360256#0.8 -353690153#2 -353690153#2.9 -353690153#2.71 -353690153#2.88 -481291014#1 -481291014#1.20 -6380913#14 -6380913#13 -6380913#12 -460419008#1 -460419008#1.44 -6515975#8 -6515975#7 -6515975#6 -6507809#4 -6507809#3 -6507809#2 -6507809#2.9 -6507809#2.91 -901474739#9 -901474739#9.9 -901474739#9.83 6440364#7 6440364#7.7 6440364#7.83 -876005346#6 -876005346#6.6 -876005346#6.69 -876005346#3 -876005346#2 -876005346#2.9 -876005346#2.90 -893868548#2 -893868548#2.7 -893868548#2.85 901474739#0 901474739#0.7 901474739#0.111 -22917110#2 -22917110#2.6 -22917110#2.86 -901477545#2 -901477545#2.11 -901477545#2.91 -32135545#3 -32135545#3.7 -32135545#3.47 -32135545#3.102 256996974#0 256996974#0.8 256996974#0.88 256996974#3 256996974#3.6 256996974#3.29 256996974#3.56 256996974#3.86 256996974#6 256996974#6.9 256996974#6.21 256996974#6.40 256996974#6.89 901474740#0 901474740#0.9 901474740#0.50 901474740#0.58 901474740#0.104 169917351#0 169917351#0.8 169917351#0.53 169917351#0.88 -6481166#3 -6481166#3.7 -6481166#3.37 -6481166#3.105 256996972 256996972.16 256996972.70 256996978#0 256996978#0.7 256996978#0.68 256996973#0 256996973#0.33 256996973#0.45 256996973#0.49 256996975#0 256996975#0.50 256996975#0.62 256996975#0.65 256996975#0.91 256996976#0 256996976#0.11 256996976#0.20 256996976#0.46 256996976#0.79 256996976#3 256996976#3.7 256996976#3.76 460421482#0 460421482#0.8 460421482#0.73 6497081#0 6497081#0.8 6497081#2 6497081#2.38 6497081#2.47 6497081#2.53 6497081#2.60 6497081#2.67 6497081#2.70 6497081#2.74 6497081#2.81 6497081#2.120 6497081#6 6497081#6.44 -6414318#2 -6414318#2.8 795669782#2 795669782#3 795846818#0 795846818#0.1 460418978#3 460418978#3.9 460418978#3.49 -6497081#10 -6497081#10.7 6371720#3 157167355#0"/>
</vehicle>
<vehicle id = "veh27" type= "veh_passenger" depart="21630" >
<route edges =" -814326475#2 -814326475#2.9 -814326475#2.24 -814326475#2.41 -814326475#2.70 -814326475#2.91 -723013181#2 -723013181#2.9 -723013181#2.18 -723013181#2.38 -723013181#0 -332601014#3 -332601014#3.31 -332601014#3.36 -332601014#3.42 65588113#0 65588113#0.12 65588113#0.104 65588113#0.135 65588113#0.237 65588113#0.250 65588113#0.253 332601013#0 332601013#0.7 332601013#0.16 332601013#0.35 332601013#0.52 332601013#0.55 332601013#0.63 658284001#0 658284001#0.6 658284001#0.39 658284001#0.53 428098988#0 428098988#0.8 428098988#0.9 428098988#0.54 428098988#0.75 428246434#0 428246434#0.18 -331930455#4 -331930455#4.14 -331930455#4.40 -331930455#4.51 -331930455#4.58 -331930455#4.91 -548654006#1 -548654006#1.9 -548654006#1.38 -548654006#1.47 -548654006#1.55 6358524#0 6358524#0.10 6358524#0.125 6358524#3 6358524#3.6 6358524#3.97 6358524#6 6358524#6.5 6358524#6.55 -6414229#11 -6374789#10 -6374789#10.121 -6374789#8 -6374789#8.5 -6374789#8.120 -6384350#11 -6384350#11.8 -6384350#11.47 -6384350#11.90 -749754758#1 -749754758#1.7 -749754758#1.102 749754757#0 749754757#0.4 749754757#0.6 749754757#0.26 749754757#0.48 749754757#0.55 749754757#0.58 749754757#0.62 749754757#0.64 749754757#0.66 749754757#0.67 749754757#0.68 749754757#0.70 749754757#0.72 749754757#0.73 749754754#0 749754754#0.11 749754754#1 749754754#1.14 749754754#1.29 -6358498#1 -6358498#1.87 6474762#3 6474762#3.35 6474762#3.38 6474762#3.42 6474762#3.46 6474762#3.49 6474762#3.54 -158612542#15 -158612542#15.93 -158612542#15.111 -158612542#12 -158612542#12.54 -158612542#12.55 -6343952#4 -6343952#4.87 -6343952#4.91 -6343952#3 -6343952#3.3 -6343952#3.7 -6343952#2 6511393#8 -6430733#1 460421473#2 460421473#2.62 -393047810#1 -393047810#1.14 -393047810#1.66 -393047810#1.75 460423542#0 460423542#0.9 460423542#2 460423542#2.42 460423542#2.44 -65588116#5 -65588116#5.12 -65588116#5.38 -65588116#5.44 -65588116#5.64 -65588116#5.81 -65588116#1 -65588116#1.113 6415868#0 6415868#0.47 6415868#2 6415868#2.24 6415868#2.65 6415868#3 6415868#3.71 -6461453#5 -6461453#5.36 -6461453#5.50 -6461453#5.66 -6461453#5.116 -6461453#2 -6461453#2.11 -6461453#2.114 -6461453#2.116 -6461453#2.117 -6461453#2.120 -912290518#2 -912290518#2.2 -912290518#2.24 -912290518#2.91 -912290518#2.94 -165086027#1 -165086027#1.2 -165086027#1.5 165042063#0 165042063#0.2 165042063#0.4 165042063#0.14 738637224 738637224.4 738637224.11 738637224.20 738637224.25 738637224.29 162631002#0 162631002#0.17 162631002#0.23 162631002#0.27 162631002#0.28 162631002#0.29 162631002#0.30 162631002#0.32 162631002#0.33 -6438604#6 -6438604#6.73 -6438604#4 -6438604#4.8 -6438604#4.24 -6438604#4.54 -6438604#4.56 -6438604#4.58 -6438604#4.60 -6438604#4.61 -6438604#4.65 332223492#0 332223492#0.22 332223492#0.40 332223492#0.51 332223492#0.65 332223492#0.100 332223492#0.140 332223492#0.146 332223492#0.160 265352909#2 265352909#2.8 265352909#2.30 265352909#2.58 265352909#2.97 265352909#2.110 607690679#0 607690679#0.3 607690679#0.8 607690679#0.15 607690679#0.94 -6456052#1 -6456052#1.10 -6456052#1.62 -337673342#0 6343890#0 6343890#0.54 6343890#0.56 6343890#0.58 6343890#0.59 6343890#0.61 -6475815#6 -6475815#6.16 -6475815#4 -6475815#3 -6475815#3.2 -6475815#3.17 -6475815#3.46 -428089348#3 -428089348#3.15 -428089348#3.21 -428089348#3.28 -428341218#2 -428341218#2.3 -428341218#2.9 -65588069#1 -65588069#1.13 -428089351#1 -428089351#1.16 -428089352#1 -428089352#1.12 -428089350 -428089350.17 -428089350.43 -428227812#1 -428227812#1.9 -428227851#1 -428227851#1.5 -13726934#1 -13726934#1.5 -428227808 -428227847#1 -428227847#1.17 -428227803#1 -428227803#1.9 -428227860 -428227860.14 -428227828 -428227842 -428227822#1 -428227822#1.17 -428227833#1 -428227833#1.13 -428227838 -428227854#1 -428227854#1.5 -428227818 -428227865#1 -428227865#1.18 -428227899#1 -428227899#1.9 -428227850#1 -428227850#1.24 -428227893#1 -428227893#1.17 -169511255#15 -169511255#15.10 -169511255#15.84 263672156#0 263672156#0.7 263672156#0.17 263672156#0.91 263672156#3 263672156#3.7 263672156#3.57 263672156#3.86 369877031#0 369877031#0.10 369877031#0.31 369877031#0.46 369877031#0.88 -749622503#8 -749622503#8.7 -749622503#8.63 -749622503#8.83 -749622503#4 -749622503#4.84 -749622503#2 -749622503#2.9 -749622503#2.29 -749622503#2.64 -749622503#2.84 -6522514#4 -6522514#4.7 -6522514#4.36 -6522514#4.61 -6522514#4.66 -6522514#4.67 -6522514#4.73 -332223490#1 -332223490#1.19 -428088887#1 -428088887#1.12 -428088892 -428088886#1 -428088886#1.24 -428088886#1.35 -428088886#1.45 6463530#0 6463530#0.2 6463530#0.8 6463530#0.13 6463530#0.54 6463530#0.95 6463530#6 6463530#6.6 6463530#6.49 6463530#6.89 -6343878#8 -6343878#8.7 -6343878#8.85 -6343878#5 -6343878#5.9 -6343878#5.86 -893868549#2 -893868549#2.10 -893868549#2.49 -893868549#2.89 -893868549#2.91 -893868549#2.93 -893868549#2.94 6456044#0 6456044#0.1 6456044#0.2 6456044#0.3 6456044#0.4 6456044#0.6 6456044#0.84 6467490#0 6467490#0.7 6467490#0.49 6467490#0.78 -401497115 -401497115.113 -401497115.170 -401497115.214 -428233435 -460425668 -460425668.5 425646007#0 425646007#0.10 425646007#0.17 425646007#0.20 425646007#0.22 425646007#0.27 -724644768 -724644768.35 6402586#0 6402586#0.1 6402586#0.4 6402586#0.6 6402586#0.12 6402586#0.35 6402586#0.59 6402586#4 6402586#4.72 6402586#4.75 6402586#4.77 6402586#4.80 208021560#0 208021560#0.2 208021560#0.5 208021560#0.8 208021560#0.11 208021560#0.30 208021560#0.39 208021560#0.44 208021560#0.106 208021560#0.125 208021560#0.133 208021560#0.136 347092914#0 347092914#0.10 347092914#0.14 347092914#0.24 347092914#0.54 347092914#0.75 347092914#0.87 332223488 332223488.25 332223488.48 332223488.65 332223488.68 332223488.88 347092907#0 347092907#0.3 347092907#0.13 347092907#0.19 347092907#0.26 347092907#0.31 347092907#0.38 347092907#0.40 347092907#0.45 347092907#0.51 332223494#0 332223494#0.18 332223494#0.35 332223494#0.144 332223494#0.171 22760519#0 22760519#0.7 22760519#0.27 22760519#3 22760519#3.9 22760519#3.21 22760519#3.33 22760519#3.91 965874292#0 965874292#0.8 965874292#0.88 965874292#3 965874292#3.1 965874292#3.48 965874292#3.59 965874292#3.86 965874292#7 965874292#7.8 965874292#7.41 965874292#10 965874292#10.35 965874292#12 965874292#12.8 965874292#12.69 158123767#0 158123767#0.10 158123767#0.11 158123767#0.50 158123767#0.74 158123767#0.86 158123767#0.115 158123767#0.122 158123767#0.134 158123767#0.139 158123767#0.166 795669781 795669781.52 795669781.56 460421481#1 460421481#1.61 460421481#1.85 256997441#0 256997441#0.11 256997441#0.18 256997441#0.62 256997441#3 256997441#3.6 256997441#3.53 256997441#6 256997441#6.46 6354836#4 6354836#5 6354836#5.54 6354836#7 6354836#7.92 -6467368#3 -6467368#2 -6467368#0 185483738#3 185483738#3.13 185483738#3.22 -512126022#2 -512126022#2.40 -512126022#2.75 512126021#0 512126021#0.7 512126021#0.31 512126021#0.66 6371720#4 6371720#4.46 6371720#6 -661086629#0 -185483733 -6414318#4 -157167355#0"/>
</vehicle>
</routes>
