<?xml version="1.0" encoding="UTF-8"?>
<routes xmlns:xsi="http: // www.w3.org/2001/XMLSchema-instance" xsi:noNamespaceSchemaLocation="http: // sumo.dlr.de/xsd/routes_file.xsd">
<vType id="veh_passenger" vClass="passenger"/>

<vehicle id = "veh0" type= "veh_passenger" depart="0" >
<route edges =" -316633577#1 -316633577#0 -797309094#1 -797309094#0 -797309094#0.6 -797309094#0.12 -797309095 -165864174#3 -165864174#2 -165864174#1 -34361024#1 -34361024#0 -34361024#0.80 -188703042#5 -188703042#4 -188703042#4.59 -188703042#3 -188703042#3.6 -188703042#3.24 -188703042#2 -188703042#1 -188703042#1.59 -188703042#1.74 -188703042#0 -188703042#0.9 -188703042#0.21 -188703049 -201989352#2 -201989352#2.8 -201989352#1 -201989352#1.9 -201989352#1.29 -201989352#0 -34361041#1 -34361041#0 -34361041#0.92 -528122494 -528122494.9 -6360234#7 -6360234#6 -6360234#6.186 -6360234#6.194 -168627934#0 -168627934#0.7 -34811472#12 -34811472#12.8 -34811472#11 -34811472#10 -34811472#9 -34811472#9.6 -34811472#9.49 -34811472#8 -34811472#7 -34811472#6 -34811472#5 -34811472#4 -34811472#4.71 -34811472#3 -34811472#3.7 -34811472#3.66 -34811472#3.122 -34811472#3.194 -34811472#2 -34811472#2.8 -34811472#2.70 -34811472#2.135 -34811472#2.192 -24024251#2 -24024251#2.7 -910274653#0 -930646447 -910274656 -210456949#12 -210456949#12.41 -210456949#11 -210456949#10 -210456949#9 -210456949#9.190 -210456949#8 -210456949#8.10 -26379345#9 -26379345#8 -26379345#8.93 24028181#3 24028181#4 24028181#4.122 24028181#5 24028181#5.186 -190017518#0 -190017518#0.7 -190017518#0.88 -999534620#25 -999534620#24 -999534620#24.3 -541349569 -541349569.193 -6356133#2 -6356133#2.8 -6356133#2.193 -6356133#1 -6356133#1.9 -6356133#0 -541349570 -819368215#0 -819368215#0.76 415870533#8 415870533#8.6 415870533#9 415870525#0 415870525#0.13 415870525#1 415870525#2 22370937#0 22370937#1 22370937#2 22370937#3 22370937#3.6 22370937#4 22370937#4.6 22370937#5 22370937#5.11 22370937#6 22370937#7 415870519#0 415870519#1 415870531#0 415870531#1 415870531#1.26 415870531#2 22370936#0 22370936#0.7 22370936#0.14 -6353149 1014203284#2 -30832687#3 -30832687#3.8 422792872#1 422792872#1.9 -6346111#4 -6346111#4.91 -6346111#4.93 195433868#5 195433868#5.7 195433868#6 195433868#6.6 -7840628#2 -7840628#2.8 -7840628#1 -7840628#1.193 168627943#7 168627943#7.7 -24164451#1 -24164451#1.7 -24164451#1.193 -24164451#0 24164453 24164453.10 24164453.23 32456680 32456680.2 -422947668 -422947668.11 -233686193 -233686193.8 -196750859#2 -196750859#1 -196750859#1.40 6378198#0 6378198#0.13 6378198#0.178 6378198#0.195 6378198#1 6378198#2 6378198#3 6378198#3.3 6378198#4 6378198#4.3 697544433#2 697544433#2.14 6351007#0 6351007#0.29 6351007#0.46 6351007#0.52 6351007#0.56 6351007#0.62 6351007#0.66 6351007#0.72 6351007#0.77 6351007#0.83 6351007#0.89 6351007#0.98 6351007#1 -6332167#0 -6332167#0.10 6386692#3 6386692#3.3 6386692#3.6 6386692#3.9 6338567#0 6338567#0.10 6338567#0.118 6338567#1 6338567#1.107 6338567#2 6338567#3 6338567#3.80 6338567#4 6338567#4.78 6338567#5 6338567#5.8 6338567#6 6338567#7 6338567#7.90 6338567#8 6338567#8.11 6338567#9 6338567#10 6338567#11 6338567#12 30156401#0 -6333513#3 -6333513#3.137 -11043363#3 -11043363#3.7 -11043363#2 -11043363#1 -11043363#0 7857575#0 7857575#0.10 7857575#0.24 7857575#0.39 7857575#0.57 7857575#0.75 7857575#0.88 7857575#0.126 7857575#0.144 7857575#0.146 7857575#0.162 7857575#0.184 7857575#0.212 7857575#0.218 7857575#0.224 7857575#0.229 7857575#0.241 7857575#0.275 7857575#0.303 7857575#0.315 7857575#0.324 7857575#0.326 7857575#0.339 7857575#0.350 7857575#0.357 7857575#0.360 7857575#0.410 7857575#1 7857575#1.42 7857575#1.66 7857575#1.85"/>
</vehicle>
<vehicle id = "veh1" type= "veh_passenger" depart="0" >
<route edges =" 797309093 797309091#0 797309091#0.10 797309091#1 797309091#1.7 797309091#2 797309091#2.10 797309091#2.15 797309091#3 377635148 377635148.3 377635148.5 -437142992 -437142992.6 -6329160 -6329160.124 -6329160.133 785854260#3 785854260#3.11 785854260#3.30 -763290363 -763290363.11 -24620691#4 -24620691#3 -24620691#2 -24620691#1 -24620691#0 24620690 24620690.5 -24620688 24620689#0 24620689#0.6 24620689#1 24620689#1.9 -201989358#2 -201989358#2.18 -201989358#1 -201989358#1.6 -201989358#1.82 -201989358#0 -195430724#15 -195430724#14 -195430724#14.20 -195430724#13 -195430724#13.78 -195430724#12 -195430724#12.8 -195430724#12.12 -195430724#11 -195430724#11.17 -164659478#5 -164659478#5.7 -164659478#4 -6362542#1 -6362542#1.7 -6362542#0 -6362542#0.104 -7783135#3 -7783135#3.7 -7783135#2 -7783135#2.7 -7783135#1 -7783135#0 -7783135#0.101 43256415 43256415.22 -6345181#8 -6345181#8.4 -6345181#8.7 -6345181#8.93 541334899#0 541334899#0.7 541334899#1 541334899#2 541334899#3 541334899#4 541334899#5 541334900#0 541334900#1 541334900#2 541334900#3 541334900#4 541334900#5 541334900#6 698994092#3 698994092#4 698994092#4.84 6348015 6348015.7 761330890 761330889#0 761330889#1 761330889#2 761330889#3 761330889#3.83 761330889#4 517593873#2 517593873#2.29 517593873#3 415876778 22278225#0 22278225#0.24 22278225#1 22278225#1.6 22278225#1.16 22278225#1.26 196779231#0 196779231#0.12 196779231#1 196779231#1.17 21452694#0 21452694#0.5 21452694#0.7 21452694#0.9 21452694#0.14 21452694#0.21 21452694#0.27 21452694#0.101 21452694#1 21452694#1.9 21452694#1.14 21452694#1.27 21452694#2 415878130#0 415878130#1 415878131#0 415878131#1 682209186 196779232 196779232.9 415878126 415878126.6 415878137#0 415878137#1 194859188#0 194859188#1 194859188#1.24 415878134#0 415878134#1 202177316#0 202177316#1 202177316#2 415878127 415878127.3 415878136#0 415878136#1 -415876790#1 -415876790#0 -756453993 -559526390 -559526390.35 -164658213#11 -164658213#11.10 -164658213#11.12 -164658213#10 -164658213#10.55 -164658213#9 -164658213#8 -164658213#7 -164658213#6 -164658213#6.156 -164658213#5 -164658213#5.7 -164658213#4 -164658213#4.36 -164658213#3 -164658213#2 -164658213#1 -164658213#0 -164658213#0.113 164658212#0 164658212#0.7 164658212#1 193256683#0 193256683#1 193256683#1.83 -618189913#5 -618189913#5.7 -618189913#5.17 -618189913#5.34 -618189913#4 -618189913#4.5 -618189913#4.9 -618189913#4.25 -618189913#3 -618189913#2 -618189913#1 -618189913#1.76 -618189913#1.91 -618189913#0 -618189913#0.6 -618189913#0.24 -618189913#0.90 -618189913#0.190 -618189913#0.204 -618189913#0.219 -618189913#0.231 -694455409#6 -694455409#6.8 -694455409#6.11 -694455409#6.20 -694455409#6.38 -694455409#5 -694455409#5.10 -694455409#5.23 -694455409#5.42 -694455409#5.118 6402116#0 6402116#0.7 6402116#0.10 6402116#0.16 6402116#0.20 6402116#0.54 6402116#0.162 6402116#0.179 6402116#0.194 6402116#0.209 6402116#0.228 6402116#0.245 6402116#0.264 6402116#0.286 6402116#0.307 6402116#0.326 6402116#0.377 6402116#0.411 6402116#0.433 -190579762#17 -190579762#17.47 6341488#16 6341488#16.13 6341488#16.20 6341488#16.48 6341488#16.58 6341488#16.72 6341488#16.96 6341488#16.142 6341488#16.158 6341488#16.170 6341488#16.183 6341488#16.197 -6336093#4 -6336093#4.17 -6336093#4.38 -6336093#4.53 -6336093#4.79 -6336093#4.90 -6336093#3 -6336093#3.13 -6336093#3.25 -6336093#3.39 -6336093#3.120 -6336093#3.127 -6336093#3.135 -6336093#2 -6336093#1 -6339085#8 -6339085#8.12 -6339085#8.19 -6339085#8.28 -6339085#8.38 -6339085#8.98 -6339085#8.116 -6339085#7 -6339085#7.29 -6339085#7.47 -6339085#7.68 -6339085#7.87 -6339085#7.110 -6339085#6 -6339085#5 -6339085#5.13 -6339085#5.24 -6339085#5.39 -6339085#4 -6339085#4.58 -6339085#4.92 -6339085#4.103 -6339085#3 -6339085#3.11 -6339085#3.19 -6339085#3.40 -6339085#3.47 -6339085#3.56 -6339085#3.68 -6339085#3.81 -6339085#3.95 -6339085#3.107 -6339085#3.120 -6339085#2 -6339085#2.14 -6339085#2.26 -6339085#2.37 -6339085#2.49 -6339085#2.63 -6339085#2.115 -6339085#2.125 -6339085#2.140 -6339085#1 -6339085#0 -6339085#0.12 -6339085#0.27 -6339085#0.45 -6339085#0.77 -6339085#0.87 -6339085#0.98 -6339085#0.119 -6339085#0.129 -190579779#0 -190579779#0.109 -190579779#0.117 6333513#0 6333513#0.10 6333513#0.40 6333513#0.51 6333513#0.62 6333513#0.73 6407689#0 -11043364#4 -11043364#3 -11043364#2 -11043364#1 -11043364#0 -11043364#0.73 -11043364#0.81 -7857575#1 -7857575#1.27 -7857575#1.57 -7857575#1.75 -7857575#1.83 -7857575#1.99 -7857575#1.115 -7857575#1.152 -7857575#1.166 -7857575#1.179 -7857575#1.219 -7857575#1.229 -7857575#1.268 -7857575#1.290 -7857575#1.315 -7857575#1.332 -7857575#1.343 -7857575#1.361 -7857575#1.378 -7857575#1.390 -7857575#1.402 -7857575#1.416 -7857575#1.443 -7857575#1.452 -7857575#1.462"/>
</vehicle>
<vehicle id = "veh2" type= "veh_passenger" depart="3605" >
<route edges =" -316633577#1 -316633577#0 -6340080#2 -6340080#1 -6340080#0 -6340080#0.27 -201989373 -201989373.4 -201989373.9 -201989373.42 -201989355#2 -201989355#2.8 -201989355#2.38 -201989355#1 -201989355#0 -5149904#1 -5149904#1.7 -5149904#0 -5149904#0.2 24501620#0 24501620#1 785854260#0 785854260#0.69 6398666 6398666.10 6398666.21 6398666.28 6398666.44 6398666.54 6398666.61 6398666.69 6398666.77 6398666.85 6398666.106 435129986 -188703042#5 -188703042#4 -188703042#4.59 -188703042#3 -188703042#3.6 -188703042#3.24 6347955 6347955.193 -24620691#2 -6352892 -6352892.7 -188703042#1 -188703042#1.59 -188703042#1.74 6338310#2 6338310#2.9 -34361036#1 -34361036#1.6 -34361036#1.121 -34361036#1.126 -34361036#1.131 -34361036#1.135 -34361036#0 -34361036#0.5 -201989352#2 -201989352#2.8 -201989352#1 -201989352#1.9 -201989352#1.29 -201989352#0 -34361041#1 -34361041#0 -34361041#0.92 -528122494 -528122494.9 -164659477#8 -164659477#8.7 -164659477#7 -164659477#7.9 -164659477#7.96 6344564#0 6344564#0.8 6344564#0.11 6344564#0.19 6344564#0.30 6344564#0.41 6344564#1 6344564#2 6344564#2.19 6344564#2.21 -34815545#0 -34815545#0.7 -34815545#0.26 -416102056#1 -416102056#0 -516590552 -416102055 -202317702#2 -202317702#1 -202317702#1.6 -202317702#0 742663482#0 742663482#1 742663482#2 742663482#2.7 742663482#3 742663482#4 574299582#0 574299582#1 574299582#2 574299582#2.15 -6388344 -6388344.12 -164659449#0 -164659449#0.48 164659493#1 164659493#1.1 164659493#1.3 164659493#1.4 164659493#1.6 164659477#0 164659477#0.3 164659477#1 164659477#2 574299582#7 574299582#8 574299582#8.4 574299582#8.23 574299582#9 574299582#9.13 574299582#10 574299582#10.7 574299582#10.56 574299582#11 574299582#12 164659478#0 164659478#1 164659478#2 164659478#2.41 164659478#2.70 164659478#2.127 164659478#3 164659478#3.7 164659478#4 164659478#5 164659478#5.101 -195430724#9 -195430724#8 -195430724#7 -195430724#7.8 -195430724#6 -195430724#6.35 -168627934#1 -168627934#1.8 -6360234#5 -6360234#5.7 -6360234#5.16 -6360234#4 -164659473#11 -164659473#10 -164659473#10.7 7783131#3 7783131#4 7783131#4.171 -34811472#9 -34811472#9.6 -34811472#9.49 -34811472#8 -34811472#7 -34811472#6 -34811472#5 -34811472#4 -34811472#4.71 25316538#6 25316538#6.7 25316538#6.92 -164659481#3 -164659481#2 -164659481#1 -164659481#0 -164659481#0.122 164659489#2 164659489#2.1 164659489#2.3 164659489#2.4 164659489#2.6 -164659447#1 -164659447#1.3 -164659447#1.87 -34811472#2 -34811472#2.8 -34811472#2.70 -34811472#2.135 -34811472#2.192 -34811472#1 -34811472#1.7 -34811472#1.74 -34811472#1.137 -34811472#0 -34811472#0.51 -34811472#0.57 -910274657 415878178#0 415878178#1 415878178#2 415878178#2.11 415878178#3 415878178#3.22 415878149 930646449#0 930646449#1 -910274656 -210456949#12 -210456949#12.41 -210456949#11 -210456949#10 -32456661#1 -25968342#4 -25968342#4.191 201989365#3 201989365#3.8 201989365#3.27 201989365#3.92 201989365#4 201989365#4.8 201989365#4.74 201989365#4.86 201989365#5 201989365#6 201989365#7 201989365#8 201989365#8.4 201989365#8.27 6384487#13 6384487#13.10 6384487#13.12 6384487#13.120 6384487#13.192 6384487#13.194 32456661#5 -6332538#6 -6332538#6.8 -6332538#6.187 -6332538#6.190 -6332538#5 -6332538#5.10 -6332538#5.14 -6332538#5.141 -6332538#4 -6332538#4.7 -6332538#4.193 -6332538#3 -6332538#3.7 -6332538#3.131 -6332538#3.136 -6332538#3.141 -6332538#3.148 -6332538#3.187 -25968345#2 -25968345#2.7 -25968345#2.93 6384487#8 6384487#8.7 6384487#8.56 6384487#8.69 -25968337#11 25968350#1 25968350#1.193 -26379345#10 -26379345#10.86 -210456949#7 -210456949#7.59 -210456949#7.73 -210456949#7.89 -210456949#7.101 -210456949#6 -210456949#5 -210456949#5.187 -25968343#0 -25968343#0.7 -25968343#0.90 25968344#2 25968344#2.1 25968344#2.3 25968344#2.5 25968344#2.6 25968344#3 25968344#3.1 25968344#3.2 25968344#3.4 25968344#3.5 25968344#3.6 -190017518#1 -190017518#1.3 -190017518#1.86 -24028181#5 -24028181#5.8 -25968337#6 -25968337#6.87 -25968337#6.89 -25968337#5 -25968337#5.9 -25968337#5.10 -25968337#5.195 -25968337#4 -25968337#4.8 -25968337#4.193 -25968337#4.195 -25968337#3 -25968337#3.7 -25968337#3.10 -25968337#3.194 -23874081#0 -23874081#0.8 -23874081#0.91 541350678 541350678.6 541350678.193 6373282#0 6373282#0.6 6373282#0.193 6373282#1 6373282#1.8 -999534620#26 -999534620#26.51 -999534620#26.67 -999534620#26.74 -190017519 -190017519.7 25968341 25968341.18 25968341.56 -999534620#24 -999534620#24.3 -999534620#23 -999534620#23.52 -999534620#23.73 -999534620#22 415870533#0 415870533#1 415870533#1.183 415870533#1.187 164659441#2 164659441#2.7 164659441#2.9 -6356133#2 -6356133#2.8 -6356133#2.193 -541349219#2 -541349219#2.75 -541349219#2.77 415870533#3 415870533#3.7 415870533#4 415870533#5 415870533#6 415870533#7 415870533#7.17 415870533#7.70 415870533#7.162 415870533#7.211 415870533#8 415870533#8.6 415870533#9 415870525#0 415870525#0.13 415870525#1 415870525#2 22370937#0 22370937#1 22370937#2 22370937#3 22370937#3.6 22370937#4 22370937#4.6 22370937#5 22370937#5.11 22370937#6 22370937#7 415870519#0 415870519#1 415870531#0 415870531#1 415870531#1.26 415870531#2 415870531#3 415870531#4 415870526#0 415870526#0.35 415870526#1 1014203284#0 1014203284#0.7 1014203284#1 1014203284#2 30832687#4 30832687#4.8 22370936#2 22370936#2.9 22370936#3 -30909407#3 -24314605#1 -6333700#4 -6333700#4.7 -6333700#4.93 -422792872#2 -422792872#1 -422792872#1.191 -422792872#0 -422792872#0.10 -422792872#0.179 415870529#2 415803769#0 415803769#1 195433868#0 195433868#1 195433868#1.5 195433868#1.19 195433868#2 195433868#2.85 195433868#3 195433868#3.8 195433868#4 195433868#4.108 195433868#5 195433868#5.7 -6333700#2 -6333700#2.7 -6333700#2.9 -6336003#3 -6336003#3.7 -6336003#2 -6336003#2.56 -6336003#1 -6336003#1.9 -6336003#1.59 -6336003#1.73 -6336003#0 -6336003#0.64 -30832687#0 -30832687#0.21 -422929506 -422929504 -422929504.11 -422929505#1 -6339229#0 164658838#1 426767275 426767274 -24164436 -24164436.57 -24164436.115 -113629978#3 -113629978#3.7 -113629978#2 -113629978#2.67 6336821#1 6336821#2 6336821#3 6336821#3.34 6336821#4 -574396276#1 -574396276#0 -574396275 6349061#0 6349061#0.8 -6344379 -6344379.51 -6344379.62 -6344379.71 6349061#3 6335796#4 6335796#4.59 6335796#5 6335796#5.7 189843770 189843770.57 189843770.61 189843770.64 -449858702 -449858702.3 -449858702.6 -233698097#10 -233698097#9 -6329575#2 -6329575#2.8 -6329575#1 -6329575#0 -22372605#4 -22372605#3 -22372605#2 -22372605#2.28 -22372605#2.31 -22372605#1 -22372605#0 -22372605#0.11 -422792870 -422792870.8 -422792870.23 -422792870.38 -422792870.77 -422792870.83 -422792870.100 -6376847#2 -6376847#2.8 -6376847#1 -6376847#0 -6376847#0.70 24297044#2 24297044#3 24297044#4 24297044#5 24297044#6 24297044#6.3 24297044#6.9 24297044#6.15 24297044#7 24297044#8 24297044#9 24297044#9.14 6399617#0 6392980 6392980.11 -6335796#2 -6335796#2.66 -6335796#1 -6335796#1.8 -6335796#1.90 -113629978#0 -113629978#0.7 -113629978#0.88 -113629978#0.107 -113629978#0.128 -113629978#0.146 -24297035#2 -24297035#2.48 593529470#1 -6335787#1 -6335787#1.7 -6335787#1.16 -6335787#1.80 21485403#7 21485403#7.7 21485403#7.65 195595366#0 195595366#0.3 195595366#1 195595366#1.17 195595366#1.69 195595366#4 195595366#5 195595366#6 195595366#7 195595366#8 195595366#8.11 195595366#8.14 6344917#0 6344917#0.8 6344917#0.18 6344917#0.21 6344917#0.33 6344917#1 6344917#1.13 6344917#1.26 6344917#2 6344917#3 6344917#3.16 6344917#3.35 6344917#3.69 6344917#3.86 6344917#3.102 6344917#3.117 6344917#3.134 6344917#3.174 6344917#3.192 6344917#3.212 6344917#3.232 7913800#1 7913800#1.15 7913800#1.27 7913800#1.41 7913795#0 7913795#0.14 7913795#0.30 541338972#1 6380068#1 -30832716#1 -30832716#1.76 422947669#1 422947669#1.10 422947669#2 774602461 774602461.22 24164450 24164450.7 24164450.30 24164450.32 -32866258 -32866258.10 -30832948#10 -30832948#10.77 -30832948#9 -30832948#9.8 -30832948#9.16 -30832948#9.41 -30832948#8 -30832948#7 -30832948#6 -30832948#5 -30832948#5.20 -30832948#5.71 -30832948#3 6346104#0 6346104#0.104 6346104#1 6346104#1.6 168627943#2 168627943#4 6333700#0 6333700#0.7 6333700#0.76 6333700#0.90 6333700#0.101 6333700#0.114 6333700#0.130 6333700#0.186 6333700#0.188 6398141#1 6398141#1.7 6398141#1.10 6398141#2 6398141#2.93 -24164451#3 -24164451#3.6 -24164451#3.8 -24164451#3.104 -24164451#2 -24164451#2.59 168627943#8 168627943#9 168627943#10 32866188#0 32866188#1 32866188#1.15 32866188#1.175 32866188#1.186 32866188#2 32866188#2.7 32866188#2.20 32866188#3 415884013#0 415884013#0.1 415884013#1 415882499#0 415882499#1 415882499#1.2 415882499#1.85 -6388365#4 -6388365#4.6 -6388365#4.8 -6388365#3 -6388365#3.45 -6388365#3.47 6398141#5 6398141#5.6 6398141#5.93 6398141#6 6398141#6.7 6398141#6.93 -6339837#4 -6339837#4.6 -6339837#3 -6339837#2 -6339837#1 -6339837#0 -6339837#0.38 -32456218#4 -32456218#3 -32456218#3.52 -22277720#2 -6402601#3 -6402601#3.93 -6388365#0 -6388365#0.7 -6388365#0.178 -6388365#0.190 -6388365#0.204 -6388365#0.217 6356111#1 6356111#1.59 6356111#1.61 6356111#1.64 -6378710 -6378710.2 -6378710.5 -6378710.11 -6378710.17 -6378710.33 -6378710.43 -6378710.58 -6378710.70 -6378710.82 -6378710.100 -195595360#1 -195595360#1.30 -195595360#1.63 -195595360#1.84 -195595360#1.111 -195595360#0 -460683945#1 -460683945#0 -460683946#1 -460683946#0 -415884036 -415884036.2 -417526452 -417526452.5 -417526452.27 -417526430 -196750859#2 -196750859#1 -196750859#1.40 6378198#0 6378198#0.13 6378198#0.178 6378198#0.195 6378198#1 6378198#2 6378198#3 6378198#3.3 6378198#4 6378198#4.3 6408035 6408035.10 697544432 697544432.9 415884026#0 415884026#1 415884026#1.1 30832954#0 541337829 541337829.12 541337829.13 541337829.20 541337829.28 6375690 6375690.13 6375690.27 6375690.50 6375690.73 6375690.94 6375690.114 6375690.134 6375690.161 -541337642 -541337642.81 -22278227#0 -22278226 -22278226.9 -22278226.55 -22277719#8 -22277719#8.6 -22277719#8.91 -6372698#1 -6372698#1.6 -6372698#1.163 -6372698#1.180 -6372698#1.188 -6372698#1.196 -6372698#1.218 -6372698#0 -6372698#0.10 -6372698#0.23 -6372698#0.36 -6372698#0.49 -6372698#0.65 -6372698#0.80 -6372698#0.94 -6372698#0.109 -6372698#0.117 -189843769 -189843769.9 -189843769.16 -189843769.21 -189843769.40 -189843769.53 -189843769.65 -189843769.81 -189843769.92 -189843769.102 -189843769.112 -189843769.128 -189843769.138 -189843769.147 -189843769.158 -189843769.175 -189843769.191 -189843769.207 -189843769.220 -189843769.234 -189843769.257 -189843769.278 -189843769.293 -189843769.305 -189843769.317 -189843769.329 -189843769.366 -189843768 -189843768.9 -6372673#1 -6372673#1.8 -6372673#1.20 -6372673#0 -6372673#0.7 -6372673#0.15 -6372673#0.28 -6372673#0.42 -6372673#0.56 -6372673#0.76 -6372673#0.85 -6372673#0.95 -6372673#0.109 -6372673#0.123 436204253#1 436204253#1.24 436204253#1.33 436204253#2 436204256#0 436204256#0.7 436204256#0.17 436204256#1 436204256#1.13 436204256#1.30 436204256#1.47 6340364#0 6340364#1 6340364#1.14 6340364#1.38 6340364#1.52 6340364#1.62 6340364#1.72 6340364#1.90 6340364#1.103 6340364#1.115 6340364#1.126 6340364#1.129 22017055#0 22017055#1 22017055#1.18 22017055#1.33 22017055#1.55 22017055#2 22017055#2.22 22017055#2.47 22017055#2.73 22017055#2.95 22017055#2.120 22017055#3 22017055#3.26 22017055#3.48 22017055#3.76 22017055#3.106 22017055#3.123 22017055#3.134 22017055#3.140 22017055#4 22017055#4.7 22017055#4.15 22017055#4.26 22017055#4.39 22017055#4.50 22017055#4.60 22017055#4.68 302542695 302542672 415793327 415793327.16 11154776#0 11154776#0.17 11154776#0.18 24528065 24528065.11 24528065.20 24528065.26 24528065.31 24528065.36 24528065.54 24528065.61 24528065.67 11152046#0 11152046#0.5 11152046#0.11 11152046#0.38 11152046#0.56 11152046#0.91 11152046#0.97 11152046#0.104 11152046#0.117 11152046#0.123 11152046#0.131 11152046#0.140 11152046#0.167 11152046#0.177 11152046#0.183 11152046#0.188 11152046#0.193 11152046#0.202 11152046#0.214 11152046#0.220 11152046#1 11152046#1.2 11152046#1.11 11152046#1.22 11152046#2 11152046#2.16 11152046#2.24 11152046#2.29 11152046#2.35 11152046#2.40 11152046#2.47 11152046#3 11152046#3.18 11152046#3.56 11152046#3.65 11152046#3.81 11152046#3.90 11152046#3.109 11152046#4 11152046#4.6 11152046#4.11 11152046#4.18 11152046#4.48 -6374520#2 -6374520#2.14 -6374520#2.25 -6374520#1 -6374520#1.14 -6374520#0 -6374520#0.39 -694236847#2 -24656895 -24656895.7 -24656895.19 -24656895.31 -24656895.52 -24656895.76 -24656895.93 -24656895.117 -24656895.127 -24656895.133 -24656895.158 -24656895.177 -24656895.206 -24656895.246 -199296726 -199296726.31 -199296726.40 -199296726.51 -199296726.58 -199296726.66 -694236843 694236845 694236845.29 694236845.34 6368533 6368533.8 6368533.17 -694236846#0 11154776#10 11154776#10.5 11154776#10.25 11154776#10.62 11154779#0 11154779#0.82 11154779#0.108 11154779#0.137 11154779#0.162 11154779#0.189 11154779#0.208 11154779#1 11154779#2 11154779#3 11154779#3.11 11154779#3.23 11154779#3.44 11154779#4 11154779#4.19 11154779#5 11154779#5.12 11154779#5.91 11154779#5.98 11154779#5.104 11154779#6 11154779#6.16 11154779#6.25 11154779#6.50 11154779#6.61 11154779#6.70 11154779#6.80 11154779#6.93 11154779#7 11154779#7.10 11154779#7.34 11154779#7.50 11154779#7.64 11154779#7.78 11154779#7.91 11154779#7.101 11154779#7.110 11154779#7.123 11154779#7.134 11154779#7.143 11154779#7.157 11154779#7.174 11154779#7.189 11154779#7.268 11154779#7.320 11154779#8 11154779#8.19 11154779#8.25 6338567#4 6338567#4.78 6338567#5 6338567#5.8 -6341488#12 -6341488#12.15 -6341488#12.26 -6341488#12.42 -6341488#12.55 -6341488#12.74 6336095#1 6336095#1.21 6336095#1.30 6336095#1.42 6336095#1.55 6336095#1.84 6336095#2 6336095#2.8 6336095#2.26 6336095#2.155 -190579762#10 -190579762#10.15 -190579762#10.28 -190579762#10.45 -190579762#9 -190579762#9.17 -190579762#9.29 -190579762#9.42 -190579762#9.56 -190579762#9.71 -190579762#9.81 6338567#8 6338567#8.11 6338567#9 6338567#10 6338567#11 6331171#1 6331171#1.19 6331171#1.40 6331171#1.58 6331171#1.74 6331171#2 6331171#2.20 6331171#2.38 6331171#2.59 6335821 6335821.6 6335821.12 6335821.132 6335821.143 6335821.154 6335821.165 6335821.179 6335821.187 190579811#3 190579811#3.9 190579811#3.19 190579811#3.32 190579811#3.45 190579811#3.54 190579811#3.64 6335822 6335822.10 6335822.17 6335822.26 6335822.39 6335822.54 6335822.85 6335822.97 6335822.106 -6333513#4 -6333513#3 -6333513#3.137 -11043363#3 -11043363#3.7 -11043363#2 -11043363#1 -11043363#0 7857575#0 7857575#0.10 7857575#0.24 7857575#0.39 7857575#0.57 7857575#0.75 7857575#0.88 7857575#0.126 7857575#0.144 7857575#0.146 7857575#0.162 7857575#0.184 7857575#0.212 7857575#0.218 7857575#0.224 7857575#0.229 7857575#0.241 7857575#0.275 7857575#0.303 7857575#0.315 7857575#0.324 7857575#0.326 7857575#0.339 7857575#0.350 7857575#0.357 7857575#0.360 7857575#0.410 7857575#1 7857575#1.42 7857575#1.66 7857575#1.85"/>
</vehicle>
<vehicle id = "veh3" type= "veh_passenger" depart="3605" >
<route edges =" 797309093 797309091#0 797309091#0.10 797309091#1 797309091#1.7 797309091#2 797309091#2.10 797309091#2.15 797309091#3 377635148 377635148.3 377635148.5 377635149#0 377635149#0.19 377635149#0.28 377635149#0.40 377635149#0.54 377635149#1 377635149#1.77 6348380#2 6348380#2.74 6348380#2.87 6348380#2.97 6333080 6333080.6 -6346195#0 -6346195#0.5 -6346195#0.16 -6346195#0.24 -6346195#0.36 437142998 184924125#0 6345697 -6348380#0 -6348380#0.166 6361214 -10389874 437142999#0 437142999#1 437143005#0 437143005#0.19 437143005#0.31 437143005#0.52 437143005#0.61 437143005#0.69 437143005#0.81 437143005#0.144 437143005#1 437143005#1.10 437143005#1.47 437143005#1.65 437143005#2 437143005#2.14 437143005#3 437143005#3.37 437143005#3.48 437143005#4 437143005#4.7 437143005#4.13 437143005#4.23 437143005#4.33 437143005#4.45 437143005#4.57 437143005#4.72 437143005#4.86 437143005#4.103 437143005#4.115 437143005#4.172 437143000 -6359476#3 -6359476#3.12 -6359476#3.19 -6359476#3.60 -6359476#3.73 -6359476#3.84 -6359476#3.95 -6359476#3.111 -6359476#3.131 -6359476#3.156 -6359476#3.181 -6359476#3.208 -6359476#3.228 -6359476#3.248 -6359476#2 -6359476#1 6340413 6340413.12 6340413.132 6340413.144 6340413.154 6340413.186 6340413.193 6340413.206 6340413.217 6340413.230 6340413.239 6340417 6340417.9 6340417.18 6340417.28 6340417.48 -437142994 -437142994.7 -437142994.15 -437142994.36 -437142994.47 -437142994.59 -437142994.71 -437142994.80 -6359479 -6359479.10 -6359479.23 -6359479.62 -6359479.80 -6359479.96 -6359479.107 -6359479.119 -6359479.154 -6359479.163 -6359479.171 -6359479.179 -6359479.181 -785854260#9 -164659487 -164659487.11 -164659487.36 -164659487.49 -164659487.62 -164659487.77 -164659487.195 -164659487.212 -164659487.230 -164659487.246 164659503#2 164659503#2.0 164659503#2.1 164659503#2.2 164659503#2.3 164659503#2.4 164659503#2.5 164659503#2.6 164659503#2.7 164659503#2.8 164659503#2.9 164659503#2.10 164659503#2.11 -37963097#4 -37963097#4.3 -37963097#3 -37963097#3.82 201989358#6 201989358#6.7 201989358#6.21 201989358#7 201989358#7.2 201989358#7.32 -481521358#3 -481521358#3.11 -481521358#2 -6360237 -6360237.240 -37963097#0 -25966411 -25966411.228 -25966411.234 25966412#2 25966412#2.1 25966412#2.3 25966412#2.4 25966412#2.6 25966412#3 25966412#3.1 25966412#3.2 25966412#3.4 25966412#3.5 25966412#3.6 -770011482 -770011482.3 -770011482.12 -770011482.20 -770011482.29 -770011482.43 -770011482.57 -770011482.67 -770011482.80 -770011482.96 -6362542#4 -6362542#4.10 -6362542#3 -6362542#3.78 -6362542#3.89 -6362542#3.98 -6362542#3.102 164659477#8 164659477#8.105 528122494 528122494.150 34361041#0 34361041#0.7 34361041#1 -195430724#15 -195430724#14 -195430724#14.20 -195430724#13 -195430724#13.78 10585275#1 10585275#1.9 10585275#2 10585275#3 10585275#3.7 10585275#3.83 -7795936#1 -7795936#1.3 -7795936#0 -7795936#0.137 -6332541#1 -6332541#0 -6332541#0.83 -164659478#5 -164659478#5.7 -6360234#6 -6360234#6.186 -6360234#6.194 168627934#1 168627934#1.103 -195430724#5 -195430724#5.10 -195430724#5.24 6369662#0 6369662#0.8 -6382818#1 -6348367#0 -6348367#0.92 195430724#2 195430724#2.8 -164659473#12 -164659473#12.8 -6360234#3 -6360234#2 -6360234#1 -6360234#0 -6360234#0.31 416106321#3 416106320#0 416106320#1 -698994081#5 -698994081#4 -698994081#3 -698994081#2 -698994081#1 -698994081#0 -698796634#2 -698796634#1 -698796634#1.7 -698796634#1.12 -698796634#0 -541335494#11 -541335494#10 -541335494#10.2 -541335494#10.3 -541335494#9 -541335494#8 -541335494#7 -541335494#6 -541335494#5 -541335494#4 -541335494#4.39 -541335494#3 -541335494#3.6 -541335494#3.15 -541335494#2 -541335494#1 -541335494#0 -698994093#10 -698994093#9 -698994093#8 -698994093#8.7 -698994093#7 -698994093#7.11 -698994093#6 -698994093#5 -698994093#5.50 -698994093#4 -698994093#4.7 -698994093#3 -698994093#2 -698994093#1 -698994093#0 -698994093#0.12 -698994093#0.22 6348015 6348015.7 761330890 761330889#0 761330889#1 761330889#2 761330889#3 761330889#3.83 761330889#4 517593873#2 517593873#2.29 517593873#3 415876778 22278225#0 22278225#0.24 22278225#1 22278225#1.6 22278225#1.16 22278225#1.26 196779231#0 196779231#0.12 196779231#1 196779231#1.17 21452694#0 21452694#0.5 21452694#0.7 21452694#0.9 21452694#0.14 21452694#0.21 21452694#0.27 21452694#0.101 21452694#1 21452694#1.9 21452694#1.14 21452694#1.27 21452694#2 415878130#0 415878130#1 415878131#0 415878131#1 682209186 196779232 196779232.9 415878126 415878126.6 415878137#0 415878137#1 194859188#0 194859188#1 194859188#1.24 415878134#0 415878134#1 202177316#0 202177316#1 202177316#2 415878127 415878127.3 415878136#0 415878136#1 -415876790#1 -415876790#0 -756453993 -559526390 -559526390.35 -164658213#11 -164658213#11.10 -164658213#11.12 -164658213#10 -164658213#10.55 -164658213#9 -164658213#8 24314605#15 24314605#15.92 24314605#15.94 24314605#16 24314605#16.7 24314605#16.11 24314605#16.82 24314605#16.86 168627978#0 168627978#0.8 168627978#0.36 168627978#0.52 168627978#0.71 168627978#0.91 168627978#0.127 168627978#0.137 168627978#1 168627978#1.19 168627978#2 168627978#3 168627978#4 958717203 903957347 903957347.10 903957346#0 903957346#0.5 903957346#1 903957346#1.14 415876791 415876791.6 415876791.11 415876791.19 415876791.38 6365504#0 6365504#0.12 6365504#0.17 6365504#0.22 6365504#1 6365504#1.47 6365504#2 6365504#3 6365504#4 6365504#4.3 6365504#4.26 6365504#4.41 6365504#4.55 6365504#4.71 6365504#5 6365504#5.14 -6400775#27 -6400775#27.6 -6400775#26 -6400775#26.2 -6400775#26.21 -6400775#25 -6400775#25.7 -6400775#25.85 -6400775#25.87 6341088#2 6341088#2.7 6341088#3 -430174924#2 -430174924#2.6 -430174924#1 -430174924#1.11 -430174924#1.21 -430174924#1.33 -430174924#1.45 -430174924#1.58 -288127321#6 -288127321#6.8 -288127321#5 -6400775#22 -6400775#21 -6400775#21.9 -6400775#21.26 -6400775#21.31 -6400775#21.41 -6400775#20 -6400775#20.16 -6400775#19 -6400775#19.6 -6400775#19.18 -6400775#19.19 -6400775#19.28 -6400775#19.34 -6400775#19.49 -6400775#19.58 -6400775#18 -6400775#18.1 -6400775#18.54 -6400775#17 -6400775#16 6329140#0 6329140#1 6329140#1.3 6329140#1.26 6329140#1.34 6329140#1.58 6329140#1.72 6329140#2 6329140#2.8 6329140#2.18 6329140#2.30 6329140#2.78 6329140#2.124 6329140#2.142 6329140#3 -22273541#3 -22273541#3.7 -22273541#3.16 -22273541#3.40 -22273541#3.51 -22273541#3.62 -22273541#3.73 6339575#3 6339575#3.7 6339575#3.12 6339575#4 6339575#4.78 -288127321#0 -363370637#7 -363370637#7.92 -363370637#6 -363370637#6.7 -363370637#5 -363370637#4 -21452801#8 -21452801#7 -21452801#6 -21452801#5 -21452801#5.63 -21452801#5.66 -21452801#4 -21452801#3 -21452801#2 -21452801#1 -21452801#1.22 -21452801#1.26 -21452801#0 193256683#0 193256683#1 193256683#1.83 22278233#0 22278233#0.7 22278233#1 -6400722#1 -6400722#0 -190380685#1 -190380685#1.9 -190380685#1.20 -190380685#1.38 -190380685#1.61 -190380685#1.77 -190380685#1.84 -190380685#0 -190380685#0.11 -190380685#0.22 -190380685#0.34 -190380685#0.60 -190380689#3 -190380689#2 22277719#4 22277719#5 22277719#6 22277719#6.92 -618189913#0 -618189913#0.6 -618189913#0.24 -618189913#0.90 -618189913#0.190 -618189913#0.204 -618189913#0.219 -618189913#0.231 -694455409#6 -694455409#6.8 -694455409#6.11 -694455409#6.20 -694455409#6.38 -694455409#5 -694455409#5.10 -694455409#5.23 -694455409#5.42 -694455409#5.118 -694455409#4 -694455409#4.29 -694455409#3 -694455409#3.4 -694455409#3.6 -694455409#3.10 -694455409#3.32 -694455409#3.62 -694455409#3.77 -694455409#3.89 6368567 6368567.8 6368567.16 6368567.22 6368567.89 6368567.99 6368567.108 6368567.118 6368567.132 6368567.141 6368567.149 6368567.159 6341488#15 6341488#15.6 6341488#15.17 6341488#15.68 6341488#15.84 6341488#15.97 6341488#15.111 6341488#15.123 6341488#15.136 6341488#15.150 6341488#15.162 6341488#15.174 6341488#15.185 6341488#15.198 6341488#15.211 6341488#15.224 6341488#15.237 -190579762#16 -190579762#16.8 -190579762#16.11 -190579762#16.26 -190579762#16.39 -190579762#16.53 -190579762#16.67 -190579762#16.88 -190579762#16.106 -190579762#16.127 -190579762#15 -190579762#14 -190579762#13 -190579762#13.2 -190579762#13.22 -190579762#12 -190579762#12.22 -190579762#11 -190579762#11.4 -190579762#11.17 -190579762#11.28 -190579762#11.40 -190579762#11.52 -190579762#11.98 -190579762#11.111 -190579762#11.126 -190579762#11.141 -190579762#11.146 -190579762#11.153 -190579762#11.157 6336093#0 6336093#0.13 6336093#0.28 6336093#0.38 6336093#0.123 -6339085#8 -6339085#8.12 -6339085#8.19 -6339085#8.28 -6339085#8.38 -6339085#8.98 -6339085#8.116 -6339085#7 -6339085#7.29 -6339085#7.47 -6339085#7.68 -6339085#7.87 -6339085#7.110 -6339085#6 -6339085#5 -6339085#5.13 -6339085#5.24 -6339085#5.39 -6339085#4 -6339085#4.58 -6339085#4.92 -6339085#4.103 -6339085#3 -6339085#3.11 -6339085#3.19 -6339085#3.40 -6339085#3.47 -6339085#3.56 -6339085#3.68 -6339085#3.81 -6339085#3.95 -6339085#3.107 -6339085#3.120 -6369249 -6369249.4 -6369249.9 -6369249.43 -6369249.50 -6369249.57 -6369249.64 -6369249.70 -6369249.135 -6369249.142 -6369249.149 -6369249.163 -6369249.174 -190579762#5 -190579762#5.9 -190579762#5.19 -190579762#5.29 -190579762#5.41 -190579762#5.62 -190579762#5.74 -190579762#5.86 -190579762#4 -190579762#3 -190579762#3.10 -190579762#3.21 -190579762#3.33 -190579762#2 -190579762#2.16 -190579762#2.48 -190579762#2.68 -190579762#2.85 -190579762#2.102 -190579762#2.117 -190579762#2.139 -190579762#2.141 -190579762#1 -190579762#1.18 -190579762#1.34 -190579762#1.48 -190579762#1.61 -190579762#1.72 -190579762#0 -190579762#0.9 -190579762#0.20 -190579762#0.30 -190579762#0.41 -190579762#0.48 -190579762#0.50 -6400759 -6400759.10 -6400759.12 190579817#0 190579817#0.11 190579817#1 190579817#1.5 190579817#1.14 190579817#1.25 190579817#1.37 190579817#1.55 190579817#1.68 6333513#0 6333513#0.10 6333513#0.40 6333513#0.51 6333513#0.62 6333513#0.73 6407689#0 -11043364#4 -11043364#3 -11043364#2 -11043364#1 -11043364#0 -11043364#0.73 -11043364#0.81 -7857575#1 -7857575#1.27 -7857575#1.57 -7857575#1.75 -7857575#1.83 -7857575#1.99 -7857575#1.115 -7857575#1.152 -7857575#1.166 -7857575#1.179 -7857575#1.219 -7857575#1.229 -7857575#1.268 -7857575#1.290 -7857575#1.315 -7857575#1.332 -7857575#1.343 -7857575#1.361 -7857575#1.378 -7857575#1.390 -7857575#1.402 -7857575#1.416 -7857575#1.443 -7857575#1.452 -7857575#1.462"/>
</vehicle>
<vehicle id = "veh4" type= "veh_passenger" depart="7210" >
<route edges =" -316633577#1 -316633577#0 -6340080#2 -6340080#1 -6340080#0 -6340080#0.27 -201989373 -201989373.4 -201989373.9 -201989373.42 678979330 678979330.18 24620199 24620199.9 24620199.11 201989357 201989357.9 201989357.10 201989357.21 201989357.53 -5149904#1 -5149904#1.7 -5149904#0 -5149904#0.2 -34361024#1 -34361024#0 -34361024#0.80 -188703042#5 -188703042#4 -188703042#4.59 -188703042#3 -188703042#3.6 -188703042#3.24 -188703042#2 6352892 6352892.193 -24620691#1 -6338310#3 -6338310#3.7 -6338310#2 -6338310#2.89 -188703042#0 -188703042#0.9 -188703042#0.21 -6329505#1 -6329505#1.9 -6329505#1.18 -6329505#1.26 -6329505#1.79 -6329505#1.88 -6329505#1.97 -6329505#1.104 -6329505#0 -201989352#2 -201989352#2.8 -201989352#1 -201989352#1.9 -201989352#1.29 -201989352#0 -34361041#1 -34361041#0 -34361041#0.92 -528122494 -528122494.9 -6360234#7 164659478#5 164659478#5.101 -195430724#9 -195430724#8 -195430724#7 -195430724#7.8 -195430724#6 -195430724#6.35 -168627934#1 -168627934#1.8 -168627934#0 -168627934#0.7 -7783135#3 -7783135#3.7 -164659473#10 -164659473#10.7 -164659473#9 -164659473#8 -164659473#8.12 -164659473#7 -164659473#7.13 -164659473#6 -164659473#6.16 -164659473#5 -164659473#5.13 -164659473#4 -164659473#3 -164659473#3.63 25316538#4 25316538#4.7 164659438#1 164659438#1.7 164659438#2 164659438#2.44 -202317716#8 -202317716#8.7 -202317716#7 -202317716#6 -202317716#5 -34811472#5 -34811472#4 -34811472#4.71 -34811472#3 -34811472#3.7 -34811472#3.66 -34811472#3.122 -34811472#3.194 164659447#1 164659447#1.7 164659447#1.91 164659489#3 164659489#3.1 164659489#3.3 164659489#3.4 164659489#3.6 164659489#4 164659489#0 164659489#0.1 164659489#0.2 164659489#0.4 164659446 164659446.3 164659446.87 164659505#3 164659505#3.1 164659505#3.3 164659505#3.4 164659505#3.6 -164659479 -164659479.3 -164659479.186 164659511#2 164659511#2.1 164659511#2.2 164659511#2.4 164659511#2.5 164659511#3 164659511#3.1 164659511#3.3 164659511#3.4 164659511#3.6 164659511#4 164659511#0 164659511#0.1 164659511#0.3 164659511#0.4 164659462#0 164659462#0.3 164659462#0.87 164659462#1 164659462#1.7 164659462#1.92 164659509#3 164659509#3.1 164659509#3.3 164659509#3.4 164659509#3.6 -25315987 -25315987.3 25315985 25315985.7 25315985.12 -819364512#6 6401499 25316479 25316479.6 202317700#3 202317700#3.60 25315896#0 25315896#0.27 25315896#1 -6342542#3 -6342542#3.171 -421385008#2 -421385008#2.7 -421385008#1 -421385008#1.16 6344484#1 6344484#1.8 25315896#3 25315896#3.66 25315896#3.71 229957845 229957845.4 229957845.6 229957845.10 229957845.15 229957845.18 -10723756#6 -10723756#6.13 -10723756#6.28 -10723756#6.160 -638619838 -638619838.8 -638619838.10 -195604802#4 -195604802#4.43 -195604802#4.49 -195604802#4.121 -195604802#4.128 6334729#1 6334729#1.51 6334729#2 6334729#2.41 -6372435#4 -6372435#4.116 -6372435#4.220 -6372435#3 -6372435#3.8 -6372435#2 -6372435#1 -6372435#0 198549475#2 198549475#2.171 421385008#5 421385008#5.7 421385008#6 417696932#0 417696932#0.10 417696932#1 -778470340#6 -778470340#5 -778470340#5.17 -778470340#4 -778470340#3 -778470340#2 -778470340#1 -778470340#0 -778470340#0.10 -778470340#0.19 -416102058 -416102058.7 -202317703#1 -202317703#1.15 -202317703#0 416111293#0 416111293#1 202317699#0 202317699#0.17 202317699#1 202317699#2 202317699#3 819364512#1 819364512#2 819364512#3 819364512#3.68 515885395#1 515885395#1.7 515885395#1.27 515885395#2 515885395#2.13 416111322 416111322.12 575429935#0 575429935#0.7 575429935#0.26 575429935#1 575429935#2 517593874#0 517593874#1 25315452#0 25315452#1 25315452#1.1 25315452#2 25315452#3 25315452#3.137 164659515#4 164659515#0 164659515#0.1 164659515#0.2 164659515#0.4 164659515#1 164659515#1.1 164659515#1.3 164659515#1.4 164659515#1.6 164659515#2 164659515#2.1 164659515#2.3 164659515#2.4 164659515#2.6 -24024251#3 -24024251#3.3 -24024251#3.88 -24024251#2 -24024251#2.7 -910274653#0 -930646447 201989375#0 201989375#1 930646453#0 930646453#0.20 930646453#1 930646453#2 930646453#2.11 930646453#2.12 415876806#0 415876806#1 -910274659 -172616533#5 -172616533#5.4 -172616533#5.9 -172616533#4 -172616533#3 -172616533#3.33 -172616533#2 -172616533#1 -172616533#0 -172616533#0.14 -172616532#4 -172616532#4.6 -172616532#4.10 -172616532#3 -172616532#3.6 -172616532#3.13 -172616532#2 -172616532#2.10 -172616532#2.20 -172616532#1 -172616532#1.2 -172616532#1.11 -172616532#1.18 -172616532#1.29 -172616532#1.46 -172616532#1.67 -172616532#1.78 -172616532#1.87 -172616532#1.105 -172616532#1.133 -172616532#0 201989365#6 201989365#7 201989365#8 201989365#8.4 201989365#8.27 201989365#9 201989365#9.7 201989365#9.78 201989365#9.92 201989365#10 201989365#10.7 201989365#10.23 201989365#10.92 -25968351#4 -25968351#4.10 -25968351#4.12 -25968351#3 -25968351#2 -26379345#13 -26379345#13.7 -26379345#13.93 -6332538#4 -6332538#4.7 -6332538#4.193 25968337#13 25968337#13.7 25968337#14 25968337#15 25968337#15.7 25968337#15.104 25968349#3 25968349#4 25968349#4.5 6343678#0 6343678#1 6343678#2 6343678#3 6343678#4 -164659480 -164659480.7 -164659480.92 -164659480.156 -164659480.222 164659492#2 164659492#2.1 164659492#2.3 164659492#2.4 164659492#2.6 -25968348#2 -25968348#2.4 -25968348#2.9 -25968348#2.87 -25968348#1 -25968348#1.8 -25968348#1.93 -6380696#0 -6380696#0.7 -6380696#0.108 -6380696#0.113 -6380696#0.173 415883933#3 415883918 415883918.26 6347639#9 6347639#9.7 6347639#9.9 6347639#9.66 6347639#10 6347639#11 6347639#11.17 6347639#11.65 25968353#1 25968353#1.0 25968353#1.1 25968353#1.2 25968353#1.3 25968353#1.4 25968353#1.5 25968353#2 25968353#2.1 25968353#2.2 25968353#2.3 25968353#2.4 25968353#2.5 25968353#2.6 25968353#3 25968353#3.1 25968353#3.2 25968353#3.3 25968353#3.4 -25968346#2 -25968346#2.3 -25968346#2.8 -25968346#1 -25968346#0 -25968346#0.40 25968357#2 25968357#2.1 25968357#2.3 25968357#2.4 25968357#2.6 25968357#3 25968357#3.1 25968357#3.3 25968357#3.4 25968357#3.6 -25968345#3 -25968345#3.3 -25968345#3.87 -25968345#2 -25968345#2.7 -25968345#2.93 -25968345#1 -25968345#1.7 -25968345#0 -25968345#0.49 25968359#2 25968359#2.1 25968359#2.2 25968359#2.4 25968359#2.5 25968359#2.7 25968350#0 25968350#0.3 -25968337#10 -25968337#9 -25968337#8 25968342#2 25968342#2.118 25968342#2.125 25968342#2.133 25968342#2.141 26379345#9 210456949#8 210456949#8.160 210456949#9 210456949#9.10 -32456661#1 -25968342#4 -25968342#4.191 -201989365#2 -201989365#2.8 -201989365#2.25 -201989365#2.92 -201989365#1 -201989365#1.10 -201989365#0 -415876797#1 -415876797#1.5 -415876797#0 -415876793#1 -415876793#0 -415876793#0.17 -201989366 -937946572#1 -937946572#0 -43050009#1 -43050009#1.55 -43050009#0 423105088#0 423105088#1 541351341 541351341.163 -233699763#2 -233699763#2.7 -233699763#2.9 -233699763#2.71 -233699763#2.92 -233699763#1 -233699763#1.11 -233699763#0 -541061780#2 -541061780#1 -541061780#1.84 541061220#0 541061220#0.9 541061220#1 541061220#2 541061220#3 541061220#4 -6371446#1 -6371446#0 -6371446#0.82 -6371446#0.83 574399185 574399185.6 296976966#0 296976966#1 -196739942#4 -196739942#3 -196739942#2 -196739942#1 -196739942#0 -6336803#7 -6336803#6 -6336803#5 -6336803#5.41 -6336803#4 -6336803#3 -6336803#2 -6336803#1 -6336803#0 -195595372#2 -195595372#1 -195595372#0 -415876803#2 -415876803#1 -415876803#0 415876796#0 415876796#1 415876796#2 296976973#0 296976973#0.2 296976973#0.6 296976973#1 296976973#1.128 296976973#2 -541350929#1 -541350929#0 -541350929#0.84 541351105 541351105.6 541351105.10 28076017 541351104#0 541351104#1 541351104#2 541351104#2.61 541351104#2.62 541351104#2.64 -423105092#1 -423105092#1.8 26379345#4 26379345#4.8 26379345#5 26379345#6 26379345#6.56 26379345#7 26379345#7.7 26379345#7.9 26379345#7.24 26379345#7.64 26379345#7.78 24028181#3 24028181#4 24028181#4.122 24028181#5 24028181#5.186 -190017518#0 -190017518#0.7 -190017518#0.88 -999534620#25 -999534620#24 -999534620#24.3 -541349569 -541349569.193 -6356133#2 -6356133#2.8 -6356133#2.193 -6356133#1 -6356133#1.9 -6356133#0 -541349570 -819368215#0 -819368215#0.76 415870533#8 415870533#8.6 415870533#9 415870525#0 415870525#0.13 415870525#1 415870525#2 22370937#0 22370937#1 22370937#2 22370937#3 22370937#3.6 22370937#4 22370937#4.6 22370937#5 22370937#5.11 22370937#6 22370937#7 415870519#0 415870519#1 415870531#0 415870531#1 415870531#1.26 415870531#2 415870531#3 415870531#4 415870526#0 415870526#0.35 415870526#1 415870529#0 415870529#1 415870529#1.19 415870529#2 415803769#0 415803769#1 195433879#0 195433879#1 195433879#1.15 195433879#1.152 195433879#1.162 188858625#0 188858625#1 574396276#2 574396276#3 164658838#0 164658838#1 426767275 426767274 168627943#0 6346111#0 -166409141#0 -166409141#0.11 -422929504 -422929504.11 -422929505#1 6339229#1 195433868#2 195433868#2.85 30832687#2 30832687#2.7 30832687#2.8 30832687#3 30832687#3.91 1014203284#3 1014203284#3.8 1014203284#3.193 1014203284#3.196 24314606#0 24314606#0.4 24314606#0.10 24314606#1 7841698#3 7841698#4 7841698#4.7 7841698#4.8 7841698#5 7841698#5.31 7841698#5.33 7841698#6 7841698#6.7 7841698#6.10 7841698#7 7841698#7.91 7841698#7.92 -23089173#3 -23089173#3.7 -23089173#3.25 -23089173#3.53 -23089173#3.64 -23089173#3.76 -23089173#3.93 -23089173#2 -23089173#2.6 -23089173#2.28 -23089173#2.39 -23089173#2.51 -23089173#2.57 -23089173#2.90 -23089173#2.93 -24314605#6 -24314605#6.6 -24314605#5 -24314605#5.92 -24314605#5.96 -24314605#4 -24314605#4.7 -24314605#4.8 -24314605#3 -24314605#2 -30909407#2 -422792872#3 -422792872#3.7 -422792872#2 -6346111#4 -6346111#4.91 -6346111#4.93 195433868#5 195433868#5.7 195433868#6 195433868#6.6 195433868#7 195433868#7.6 195433868#7.93 195433868#8 195433868#8.6 195433868#8.87 195433868#9 -415884013#1 -415884013#0 -415884013#0.15 -32866188#3 -32866188#2 -32866188#2.142 -32866188#2.156 6398141#4 6398141#4.7 6398141#4.10 6398141#4.93 6398141#5 6398141#5.6 6398141#5.93 22277720#4 22277720#4.7 22277720#5 23089187 23089187.13 23089187.16 415882499#3 415882499#3.5 415882499#4 415882499#5 415882499#6 415882499#7 415882499#8 415882497#0 415882497#1 415884018#0 415884018#1 415884018#2 415884018#2.82 415884018#3 -574404433#1 -574404433#0 -574404432 -6398141#7 -6339837#4 -6339837#4.6 -6339837#3 -6339837#2 -6339837#1 -6339837#0 -6339837#0.38 -32456218#4 -32456218#3 -32456218#3.52 -32456218#2 -32456218#2.7 -32456218#2.93 -32456218#1 -32456218#1.7 -32456218#0 -26723188#2 -26723188#1 -26723188#1.21 -26723188#1.162 -26723188#1.185 -26723188#0 -26723188#0.7 -26723188#0.29 -32866333 -32866333.30 -32866333.52 -415884035#1 -415884035#0 -195595386#2 -195595386#2.4 -195595386#1 -195595386#1.5 -195595386#0 -460683946#1 -460683946#0 -415884036 -415884036.2 -417526452 -417526452.5 -417526452.27 -417526430 -196750859#2 -196750859#1 -196750859#1.40 6378198#0 6378198#0.13 6378198#0.178 6378198#0.195 6378198#1 6378198#2 6378198#3 6378198#3.3 6378198#4 6378198#4.3 6408035 6408035.10 697544432 697544432.9 415884026#0 415884026#1 415884026#1.1 30832954#0 30832954#1 30832954#1.83 30832954#1.105 30832954#1.115 30832954#1.126 30832954#1.148 30832954#1.165 30832954#1.179 30832954#1.191 30832954#1.194 415884028 415884028.22 415884027 22278221 22278221.11 22278221.16 22278221.32 -22278227#3 -22278227#2 -22278227#1 541337642 541337642.7 -6375690 -6375690.18 -6375690.45 -6375690.64 -6375690.85 -6375690.105 -6375690.129 -6375690.151 -6375690.165 -6327827#1 -6327827#1.7 -6327827#0 -6327827#0.170 -6332167#1 -6332167#1.11 -6332167#1.29 -6332167#1.51 -6332167#1.66 -6332167#1.79 -6332167#1.100 -6332167#1.119 -6332167#1.134 -6332167#0 -6332167#0.10 6386692#3 6386692#3.3 6386692#3.6 6386692#3.9 6338567#0 6338567#0.10 6338567#0.118 6338567#1 6338567#1.107 6338567#2 6338567#3 6338567#3.80 6338567#4 6338567#4.78 -193256686#18 -193256686#18.7 -193256686#18.13 -193256686#18.29 -193256686#18.38 -193256686#18.57 -193256686#18.88 -193256686#18.120 -193256686#18.133 -193256686#18.145 -193256686#18.160 -193256686#18.174 -193256686#18.187 -193256686#18.196 -193256686#18.199 -193256686#17 -193256686#17.11 -193256686#17.27 -193256686#17.62 -193256686#17.71 -6358815#1 -6358815#1.8 -6358815#1.18 -6358815#1.32 -6358815#1.40 -6358815#1.47 -6358815#1.55 -6358815#1.63 -6358815#1.72 -6358815#1.109 -6358815#1.121 -6358815#1.135 -6358815#1.148 -6358815#1.164 -6358815#1.179 -11154779#6 -11154779#6.15 -11154779#6.29 -11154779#6.38 -11154779#6.48 -11154779#6.59 -11154779#6.83 -11154779#6.93 -11154779#5 -11154779#5.12 -11154779#5.18 -11154779#5.25 -11154779#5.104 -11154779#4 -11154779#4.13 -11154779#3 -11154779#3.53 -11154779#3.74 -11154779#3.86 6388487 6388487.8 6388487.19 6388487.28 6388487.38 6388487.49 6388487.71 6388487.82 6388487.90 6388487.103 6388487.114 6388487.127 6388487.139 6388487.150 6388487.249 6388487.253 6388487.259 6388487.262 6388487.266 6388487.308 6388487.320 6388487.327 193256686#9 193256686#9.9 193256686#10 193256686#10.5 193256686#10.16 193256686#10.29 193256686#10.46 193256686#11 193256686#12 193256686#12.27 6347601 6347601.7 6347601.56 6347601.70 6347601.82 6347601.93 6347601.104 6347601.114 6347601.124 6347601.132 6347601.143 6347601.156 6347601.167 6347601.176 6347601.187 6371698#1 6371698#1.51 6371698#1.66 6341488#7 6341488#7.16 6341488#7.39 6341488#7.79 6341488#7.90 6341488#8 6341488#9 6341488#9.74 6341488#9.82 6341488#10 6341488#10.3 6341488#10.13 6341488#10.25 6341488#10.35 6341488#10.48 6341488#10.63 6341488#10.80 6341488#10.93 6341488#10.105 6372213#0 6372213#0.4 6372213#0.9 6372213#0.33 6372213#0.57 6372213#0.86 6372213#1 6372213#1.9 6372213#1.21 6372213#1.68 6372213#1.81 6372213#1.88 6372213#1.98 6372213#1.111 6369262#1 6369262#1.18 6369262#1.31 6369262#1.47 6369262#1.71 -190579762#6 -190579762#6.13 -190579762#6.17 -190579762#6.26 6369249 6369249.10 6369249.21 6369249.36 6369249.43 6369249.50 6369249.115 6369249.121 6369249.128 6369249.135 6369249.142 6369249.176 6369249.181 6339085#3 6339085#3.21 6339085#3.34 6339085#3.46 6339085#3.60 6339085#3.73 6339085#3.86 6339085#3.95 6339085#3.101 6339085#3.122 6339085#3.131 6339085#4 6339085#4.9 6339085#4.19 6339085#4.53 6338567#11 6338567#12 30156401#0 -6333513#3 -6333513#3.137 -11043363#3 -11043363#3.7 -11043363#2 -11043363#1 -11043363#0 7857575#0 7857575#0.10 7857575#0.24 7857575#0.39 7857575#0.57 7857575#0.75 7857575#0.88 7857575#0.126 7857575#0.144 7857575#0.146 7857575#0.162 7857575#0.184 7857575#0.212 7857575#0.218 7857575#0.224 7857575#0.229 7857575#0.241 7857575#0.275 7857575#0.303 7857575#0.315 7857575#0.324 7857575#0.326 7857575#0.339 7857575#0.350 7857575#0.357 7857575#0.360 7857575#0.410 7857575#1 7857575#1.42 7857575#1.66 7857575#1.85"/>
</vehicle>
<vehicle id = "veh5" type= "veh_passenger" depart="7210" >
<route edges =" 797309093 797309091#0 797309091#0.10 797309091#1 797309091#1.7 797309091#2 797309091#2.10 797309091#2.15 797309091#3 377635148 377635148.3 377635148.5 377635149#0 377635149#0.19 377635149#0.28 377635149#0.40 377635149#0.54 -437142996 -437142996.8 -437142997 -437142997.7 -437142997.19 -437142997.28 -437142995 -6336839 -6336839.8 -6336839.22 -6336839.37 -6336839.47 -6336839.56 -6336839.71 -6336843 -6336843.11 -6336843.20 -6336843.52 785854260#5 -20625899 -20625899.13 -20625899.430 6344478 6344478.10 -201989358#4 -201989358#4.8 -201989358#4.92 -201989358#4.97 25340020 25340020.6 25340020.17 24620689#0 24620689#0.6 24620689#1 24620689#1.9 -201989358#2 -201989358#2.18 -201989358#1 -201989358#1.6 -201989358#1.82 -201989358#0 -195430724#15 -195430724#14 -195430724#14.20 -195430724#13 -195430724#13.78 -195430724#12 -195430724#12.8 -195430724#12.12 -195430724#11 -195430724#11.17 -164659478#5 -164659478#5.7 6360234#7 528122494 528122494.150 -528122493#2 -528122493#2.7 -528122493#1 -528122493#0 -6362542#4 -6362542#4.10 -6362542#3 -6362542#3.78 -6362542#3.89 -6362542#3.98 -6362542#3.102 -164659477#7 -164659477#7.9 -164659477#7.96 -6344566#3 -6344566#3.8 -6344566#3.11 -6344566#3.20 -6344566#3.32 -23226443#9 -23226443#9.67 -23226443#9.84 -23226443#8 -23226443#8.64 -23226443#7 -23226443#6 -23226443#5 -23226443#4 -23226443#3 -23226443#2 -23226443#2.77 -23226443#1 -23226443#1.8 -23226443#1.192 -164659462#0 -164659462#0.7 -164659462#0.91 164659511#1 164659511#1.1 164659511#1.2 164659511#1.4 164659511#1.5 164659479 164659479.3 164659479.186 164659505#4 164659505#0 164659505#0.1 164659505#0.2 164659505#0.4 164659505#1 164659505#1.1 164659505#1.3 164659505#1.4 164659505#1.6 515883300#0 515883300#0.3 515883300#1 515883300#2 515883300#3 515883300#4 164659478#0 164659478#1 164659478#2 164659478#2.41 164659478#2.70 164659478#2.127 164659478#3 164659478#3.7 -6362542#1 -6362542#1.7 -6362542#0 -6362542#0.104 168627934#0 168627934#0.97 168627934#1 168627934#1.103 -195430724#5 -195430724#5.10 -195430724#5.24 6369662#0 6369662#0.8 -6382818#1 -6348367#0 -6348367#0.92 -195430724#1 -195430724#1.26 -195430724#0 -698994081#5 -698994081#4 -698994081#3 -698994081#2 -698994081#1 -698994081#0 6333764#0 6333764#1 6333764#1.11 6333764#2 6333764#3 6333764#4 6333764#5 6333764#6 6333764#6.55 541334899#0 541334899#0.7 541334899#1 541334899#2 541334899#3 541334899#4 541334899#5 541334786#0 541334786#1 541334786#1.21 541334786#2 -698994093#10 -698994093#9 -698994093#8 -698994093#8.7 -698994093#7 -698994093#7.11 -698994093#6 -698994093#5 -698994093#5.50 196779223#4 196779223#4.7 196779223#4.89 196779223#5 541334900#4 541334900#5 541334900#6 698994092#3 698994092#4 698994092#4.84 6348015 6348015.7 761330890 761330889#0 761330889#1 761330889#2 761330889#3 761330889#3.83 761330889#4 517593873#2 517593873#2.29 517593873#3 415876778 196779219#0 196779219#1 196779219#2 196779219#3 30833030#0 30833030#1 30833030#1.19 196779231#0 196779231#0.12 196779231#1 196779231#1.17 21452694#0 21452694#0.5 21452694#0.7 21452694#0.9 21452694#0.14 21452694#0.21 21452694#0.27 21452694#0.101 21452694#1 21452694#1.9 21452694#1.14 21452694#1.27 21452694#2 415878130#0 415878130#1 415878131#0 415878131#1 682209186 196779232 196779232.9 415878126 415878126.6 415878137#0 415878137#1 22372598#1 22372598#2 22372598#3 -6391592#1 -6391592#1.7 -6391592#0 -6391592#0.14 781008559#0 781008559#1 781008559#2 781008559#3 202177316#0 202177316#1 202177316#2 415878127 415878127.3 415878136#0 415878136#1 -417694700#1 -417694700#0 -417694700#0.27 -21452801#14 -21452801#14.52 -21452801#14.110 -21452801#13 -21452801#13.45 -21452801#13.82 -21452801#13.88 -21452801#12 -21452801#12.7 -21452801#12.36 -21452801#11 -21452801#10 -21452801#10.1 -21452801#10.21 -21452801#9 -363370637#3 -363370637#2 -164658213#5 -164658213#5.7 -164658213#4 -164658213#4.36 -164658213#3 -164658213#2 -164658213#1 -164658213#0 -164658213#0.113 164658212#0 164658212#0.7 164658212#1 193256683#0 193256683#1 193256683#1.83 -618189913#5 -618189913#5.7 -618189913#5.17 -618189913#5.34 -618189913#4 -618189913#4.5 -618189913#4.9 -618189913#4.25 -618189913#3 -618189913#2 -618189913#1 -618189913#1.76 -618189913#1.91 22277719#7 22277719#7.7 22277719#7.92 22277719#8 22277719#8.6 22277719#8.92 -6391580#1 -6391580#1.7 -6391580#1.137 -6391580#1.151 -6391580#1.169 -6391580#1.181 -6391580#0 -6391580#0.16 -6391580#0.30 -6391580#0.45 -6391580#0.58 -6391580#0.69 -6391580#0.71 187827704#1 187827704#1.7 187827704#1.56 187827704#1.70 187827704#1.82 187827704#1.93 187827704#1.174 187827704#1.180 187827704#1.185 187827704#1.187 541338171#1 541338171#1.7 541338171#1.52 541338171#1.99 541338171#1.141 574377108 574377108.28 574377108.72 574377108.85 574377108.86 -694455409#6 -694455409#6.8 -694455409#6.11 -694455409#6.20 -694455409#6.38 -694455409#5 -694455409#5.10 -694455409#5.23 -694455409#5.42 -694455409#5.118 6402116#0 6402116#0.7 6402116#0.10 6402116#0.16 6402116#0.20 6402116#0.54 6402116#0.162 6402116#0.179 6402116#0.194 6402116#0.209 6402116#0.228 6402116#0.245 6402116#0.264 6402116#0.286 6402116#0.307 6402116#0.326 6402116#0.377 6402116#0.411 6402116#0.433 6402116#1 6402116#1.46 6402116#1.57 6402116#1.69 6402116#1.82 6402116#1.97 6402116#1.112 6402116#1.123 6402116#1.135 6402116#1.161 6402116#1.185 6402116#2 6402116#3 6402116#3.18 6402116#3.33 6402116#3.42 6402116#3.53 6402116#3.68 6402116#3.75 6402116#3.94 6402116#4 6402116#5 6402116#5.14 6402116#5.25 6402116#5.32 6402116#5.50 6402116#5.66 6402116#5.85 6402116#6 6402116#6.11 6402116#6.20 6402116#6.33 6402116#6.43 6402116#6.52 6402116#6.63 6402116#6.79 6402116#7 6402116#7.47 6402116#7.61 6402116#7.73 6402116#8 6402116#8.12 6402116#8.23 6402116#8.37 6402116#8.51 6402116#8.85 6375836#4 6375836#4.22 6375836#4.57 6375836#4.73 6375836#4.90 6375836#5 6375836#5.30 6375836#5.38 6375836#5.46 6375836#5.53 6375836#5.81 6375836#5.93 6375836#5.106 6375836#5.131 6375836#5.148 6375836#5.164 6375836#5.175 6375836#6 6375836#6.3 6375836#6.7 6375836#6.14 6375836#6.27 6375836#6.34 6375836#6.41 6375836#6.52 6375836#6.64 6375836#6.86 6375836#6.96 6375836#6.105 6347422#0 6347422#0.18 6347422#0.27 6347422#0.35 6347422#0.47 6347422#0.61 6347422#0.78 6347422#0.91 6347422#0.125 6347422#0.146 6339933#0 6339933#0.25 6339933#0.40 6339933#0.51 6339933#0.95 6339933#1 6339933#2 6339933#2.9 6339933#2.25 6339933#2.42 -6379658#0 -6379658#0.10 -6379658#0.18 -6379658#0.37 -6379658#0.49 -6379658#0.60 -6379658#0.72 -6379658#0.94 -6379658#0.106 -6379658#0.117 -6379658#0.138 -6379658#0.149 -6379658#0.163 -6379658#0.176 -6375842#2 -6375842#2.10 -6375842#2.18 -6375842#2.28 -6375842#2.48 -6375842#2.69 -6375842#2.107 -6375842#2.111 -6375842#2.116 6385200#0 6385200#0.29 6385200#0.42 6385200#0.59 6385200#0.73 6385200#0.93 6385200#0.111 6385200#1 6385200#2 6385200#2.14 6385200#2.29 6385200#2.44 6385200#2.59 6385200#2.76 6385200#2.101 6385200#3 6385200#4 6385200#4.4 6385200#4.12 6385200#4.20 6385200#4.53 6385200#4.60 6385200#4.66 6385200#4.73 6385200#5 6385200#6 6385200#6.8 6385200#6.16 6385200#6.26 6385200#6.36 6385200#6.54 6385200#6.67 6385200#6.82 6385200#6.96 6385200#7 6385200#7.11 6385200#7.30 6385200#7.47 6385200#8 6385200#8.70 6385200#8.82 6385200#8.94 6385200#8.107 6385200#8.118 6385200#9 6385200#9.3 6385200#9.12 6385200#9.21 6385200#9.31 30734874#0 30734874#0.8 30734874#0.13 30734874#1 30734874#1.4 30734874#1.11 30734874#1.25 30734874#1.40 30734874#1.57 30734874#1.75 30734874#1.83 30734874#1.114 -6348628 -6348628.15 -6348628.27 -6348628.45 -6348628.64 -6348628.78 -6348628.94 -6348628.118 -6348628.138 -6348628.148 -6348628.171 -6348628.182 -6341488#19 -6341488#18 -6341488#17 -6341488#17.16 -6341488#17.38 -6341488#17.51 -6341488#17.77 -6341488#17.134 -6336093#4 -6336093#4.17 -6336093#4.38 -6336093#4.53 -6336093#4.79 -6336093#4.90 -6336093#3 -6336093#3.13 -6336093#3.25 -6336093#3.39 -6336093#3.120 -6336093#3.127 -6336093#3.135 -6336093#2 -6336093#1 -6336093#0 -6336093#0.17 -6336093#0.102 -6336093#0.112 -6336093#0.127 -6336095#2 -6336095#2.10 -6336095#2.139 -6336095#2.157 6338567#7 6338567#7.90 6338567#8 6338567#8.11 6343160 6343160.7 6343160.14 6343160.22 6343160.28 6343160.36 6343160.45 6343160.53 6343160.61 6343160.74 6343160.81 6343160.91 6343160.98 6343160.106 6343160.115 6343160.123 6343160.160 6343160.170 6343160.177 6343160.185 6343160.191 6343160.217 -6339085#3 -6339085#3.11 -6339085#3.19 -6339085#3.40 -6339085#3.47 -6339085#3.56 -6339085#3.68 -6339085#3.81 -6339085#3.95 -6339085#3.107 -6339085#3.120 -6339085#2 -6339085#2.14 -6339085#2.26 -6339085#2.37 -6339085#2.49 -6339085#2.63 -6339085#2.115 -6339085#2.125 -6339085#2.140 -6339085#1 -6339085#0 -6339085#0.12 -6339085#0.27 -6339085#0.45 -6339085#0.77 -6339085#0.87 -6339085#0.98 -6339085#0.119 -6339085#0.129 190579779#1 190579779#1.38 190579779#1.62 190579779#1.78 190579779#1.89 190579779#1.90 190579779#2 190579779#2.4 190579779#3 190579779#3.8 190579779#3.15 190579779#3.31 190579811#0 190579811#0.14 190579811#0.31 190579811#0.46 190579811#0.61 190579811#0.77 190579811#0.101 190579811#0.116 190579811#0.136 190579811#0.154 190579811#0.171 190579811#0.189 190579811#0.205 190579811#0.225 190579811#0.230 -11043363#4 -11043363#4.9 -11043363#4.16 -11043363#4.34 -11043363#4.41 -6333513#2 -6333513#2.6 -6333513#2.121 -6333513#2.154 -6333513#2.202 -6333513#1 -6333513#1.49 -6333513#1.73 -6333513#1.92 -6333513#1.110 -6333513#1.168 -6333513#1.177 -6333513#1.186 -6333513#1.196 6407689#0 -11043364#4 -11043364#3 -11043364#2 -11043364#1 -11043364#0 -11043364#0.73 -11043364#0.81 -7857575#1 -7857575#1.27 -7857575#1.57 -7857575#1.75 -7857575#1.83 -7857575#1.99 -7857575#1.115 -7857575#1.152 -7857575#1.166 -7857575#1.179 -7857575#1.219 -7857575#1.229 -7857575#1.268 -7857575#1.290 -7857575#1.315 -7857575#1.332 -7857575#1.343 -7857575#1.361 -7857575#1.378 -7857575#1.390 -7857575#1.402 -7857575#1.416 -7857575#1.443 -7857575#1.452 -7857575#1.462"/>
</vehicle>
<vehicle id = "veh6" type= "veh_passenger" depart="10815" >
<route edges =" 797309093 797309091#0 797309091#0.10 797309091#1 797309091#1.7 797309091#2 797309091#2.10 797309091#2.15 797309091#3 377635148 377635148.3 377635148.5 -437142992 -437142992.6 -6329160 -6329160.124 -6329160.133 785854260#3 785854260#3.11 785854260#3.30 -763290363 -763290363.11 -24620691#4 -24620691#3 -24620691#2 -6352892 -6352892.7 -188703042#1 -188703042#1.59 -188703042#1.74 -188703042#0 -188703042#0.9 -188703042#0.21 -6329505#1 -6329505#1.9 -6329505#1.18 -6329505#1.26 -6329505#1.79 -6329505#1.88 -6329505#1.97 -6329505#1.104 -6329505#0 -201989352#2 -201989352#2.8 -201989352#1 -201989352#1.9 -201989352#1.29 -201989352#0 -195430724#15 -195430724#14 -195430724#14.20 -195430724#13 -195430724#13.78 10585275#1 10585275#1.9 10585275#2 10585275#3 10585275#3.7 10585275#3.83 -7795936#1 -7795936#1.3 -7795936#0 -7795936#0.137 -24620185#2 -24620185#2.7 -24620185#2.83 -6347525#0 -6347525#0.7 -6347525#0.198 195430724#8 195430724#9 -164659478#5 -164659478#5.7 -6360234#6 -6360234#6.186 -6360234#6.194 -168627934#0 -168627934#0.7 -34811472#12 -34811472#12.8 -34811472#11 -34811472#10 -7783131#4 -7783131#4.7 -7783131#3 -164659473#9 -164659473#8 -164659473#8.12 -164659473#7 -164659473#7.13 -164659473#6 -164659473#6.16 202317716#13 202317716#13.7 202317716#14 742663483#0 742663483#1 742663483#1.35 742663483#1.56 742663483#1.77 742663483#1.84 742663483#2 415878804#0 415878804#1 415878803#0 415878803#1 541334786#0 541334786#1 541334786#1.21 541334786#2 -698994093#10 -698994093#9 -698994093#8 -698994093#8.7 -698994093#7 -698994093#7.11 -698994093#6 -698994093#5 -698994093#5.50 -698994093#4 -698994093#4.7 -698994093#3 -698994093#2 -698994093#1 -698994093#0 -698994093#0.12 -698994093#0.22 6348015 6348015.7 761330890 761330889#0 761330889#1 761330889#2 761330889#3 761330889#3.83 761330889#4 517593873#2 517593873#2.29 517593873#3 415876778 196779219#0 196779219#1 196779219#2 196779219#3 30833030#0 30833030#1 30833030#1.19 196779231#0 196779231#0.12 196779231#1 196779231#1.17 21452694#0 21452694#0.5 21452694#0.7 21452694#0.9 21452694#0.14 21452694#0.21 21452694#0.27 21452694#0.101 21452694#1 21452694#1.9 21452694#1.14 21452694#1.27 21452694#2 415878130#0 415878130#1 415878131#0 415878131#1 682209186 196779232 196779232.9 415878126 415878126.6 415878137#0 415878137#1 22372598#1 22372598#2 22372598#3 -6391592#1 -6391592#1.7 -6391592#0 -6391592#0.14 781008559#0 781008559#1 781008559#2 781008559#3 202177316#0 202177316#1 202177316#2 415878127 415878127.3 415878136#0 415878136#1 -417694700#1 -417694700#0 -417694700#0.27 -21452801#14 -21452801#14.52 -21452801#14.110 -21452801#13 -21452801#13.45 -21452801#13.82 -21452801#13.88 -21452801#12 -21452801#12.7 -21452801#12.36 -21452801#11 -21452801#10 -21452801#10.1 -21452801#10.21 -21452801#9 363370637#4 363370637#5 363370637#6 363370637#6.48 363370637#7 363370637#7.6 -6400722#10 -6400722#10.8 -6400722#9 -6400722#8 -6400722#7 -6400722#6 -6400722#6.20 -6400722#6.23 -6400722#5 -6400722#5.7 -6400722#5.8 -6400722#4 -6400722#3 -6400722#2 -22278233#1 -22278233#0 -22278233#0.43 -193256683#1 -193256683#1.8 -193256683#0 -164658212#1 -164658212#0 -164658212#0.85 164658213#0 164658213#0.6 164658213#1 164658213#2 164658213#3 -32618074#3 -32618074#2 -32618074#1 -32618074#0 415884014#0 415884014#1 574404431 32618073 32618073.10 32618073.17 906507782 22277730#0 22277730#1 906507783#0 906507783#0.5 906507783#1 22277729#0 22277729#1 22277729#1.73 22277729#1.129 22277729#1.185 22277729#2 22277729#3 36985596 36985597#0 36985597#1 36985597#2 36985597#2.46 36985597#2.74 541337642 541337642.7 187827704#0 187827704#0.39 187827704#0.54 187827704#0.63 187827704#0.83 187827704#0.95 187827704#0.110 187827704#0.122 187827704#0.137 187827704#0.150 187827704#1 187827704#1.7 187827704#1.56 187827704#1.70 187827704#1.82 187827704#1.93 187827704#1.174 187827704#1.180 187827704#1.185 187827704#1.187 541338171#1 541338171#1.7 541338171#1.52 541338171#1.99 541338171#1.141 574377108 574377108.28 574377108.72 574377108.85 574377108.86 -694455409#6 -694455409#6.8 -694455409#6.11 -694455409#6.20 -694455409#6.38 -694455409#5 -694455409#5.10 -694455409#5.23 -694455409#5.42 -694455409#5.118 -694455409#4 -694455409#4.29 -694455409#3 -694455409#3.4 -694455409#3.6 -694455409#3.10 -694455409#3.32 -694455409#3.62 -694455409#3.77 -694455409#3.89 -694455409#1 -694455409#1.21 -694455409#0 -694455409#0.15 -694455409#0.26 -694455409#0.37 -694455409#0.48 -694455409#0.58 -694455409#0.68 -694455409#0.104 -694455409#0.109 -694455409#0.119 6338567#5 6338567#5.8 6338567#6 -6336095#1 -6336095#1.9 -6336095#1.38 -6336095#1.51 -6336095#1.63 -6336095#1.72 -6341488#11 -6341488#11.22 -6341488#11.37 -6341488#11.49 -6341488#10 -6341488#10.15 -6341488#10.27 -6341488#10.40 -6341488#10.58 -6341488#10.73 -6341488#10.85 -6341488#10.95 -6341488#10.107 -6341488#10.117 -6341488#9 -6341488#9.5 -6341488#9.13 -6341488#8 6369262#0 6369262#0.30 6369262#0.59 6369262#1 6369262#1.18 6369262#1.31 6369262#1.47 6369262#1.71 -190579762#6 -190579762#6.13 -190579762#6.17 -190579762#6.26 -190579762#5 -190579762#5.9 -190579762#5.19 -190579762#5.29 -190579762#5.41 -190579762#5.62 -190579762#5.74 -190579762#5.86 -190579762#4 -190579762#3 -190579762#3.10 -190579762#3.21 -190579762#3.33 -190579762#2 -190579762#2.16 -190579762#2.48 -190579762#2.68 -190579762#2.85 -190579762#2.102 -190579762#2.117 -190579762#2.139 -190579762#2.141 -190579762#1 -190579762#1.18 -190579762#1.34 -190579762#1.48 -190579762#1.61 -190579762#1.72 -190579762#0 -190579762#0.9 -190579762#0.20 -190579762#0.30 -190579762#0.41 -190579762#0.48 -190579762#0.50 -6400759 -6400759.10 -6400759.12 190579817#0 190579817#0.11 190579817#1 190579817#1.5 190579817#1.14 190579817#1.25 190579817#1.37 190579817#1.55 190579817#1.68 6333513#0 6333513#0.10 6333513#0.40 6333513#0.51 6333513#0.62 6333513#0.73 6407689#0 -11043364#4 -11043364#3 -11043364#2 -11043364#1 -11043364#0 -11043364#0.73 -11043364#0.81 -7857575#1 -7857575#1.27 -7857575#1.57 -7857575#1.75 -7857575#1.83 -7857575#1.99 -7857575#1.115 -7857575#1.152 -7857575#1.166 -7857575#1.179 -7857575#1.219 -7857575#1.229 -7857575#1.268 -7857575#1.290 -7857575#1.315 -7857575#1.332 -7857575#1.343 -7857575#1.361 -7857575#1.378 -7857575#1.390 -7857575#1.402 -7857575#1.416 -7857575#1.443 -7857575#1.452 -7857575#1.462"/>
</vehicle>
<vehicle id = "veh7" type= "veh_passenger" depart="10815" >
<route edges =" -316633577#1 -316633577#0 -6340080#2 -6340080#1 -6340080#0 -6340080#0.27 -201989373 -201989373.4 -201989373.9 -201989373.42 678979330 678979330.18 24620199 24620199.9 24620199.11 -6405162#1 -6405162#1.8 -6405162#1.26 -6405162#1.79 -6405162#0 -6405162#0.9 -6405162#0.41 -6405162#0.58 -6405162#0.69 -6405162#0.78 -6405162#0.84 -6405162#0.90 -6356253 -6356253.9 -6356253.18 -6356253.25 -6356253.32 -6356253.183 -6356253.191 -6356253.193 -201989360#2 -201989360#2.6 -201989360#2.14 -201989360#1 -201989360#1.34 -201989360#0 -201989360#0.20 -201989360#0.24 -656030857 -656030854 -21460887 -21460887.18 -24620184#1 -24620184#1.7 -24620184#0 -24620184#0.39 -24620184#0.44 -24620184#0.47 24620185#0 24620185#0.4 24620185#0.8 24620185#0.71 6318448#1 6318448#1.7 6318448#1.198 -195430724#6 -195430724#6.35 -195430724#5 -195430724#5.10 -195430724#5.24 6369662#0 6369662#0.8 -6382818#1 6348367#1 6348367#1.91 6348367#1.95 -7795937 -7795937.3 -7795937.6 -7795937.11 -7795937.183 -7795937.190 43256407#5 43256407#6 21459815#0 21459815#1 -6339489#1 -6339489#1.6 -6339489#0 -6339489#0.112 -6339489#0.116 -6339489#0.117 -7781335 -7781335.7 -7781335.9 -7781335.148 -7781335.152 -6403136 -6403136.5 -6403136.98 -6403136.101 659099712#0 659099712#0.28 659099712#0.35 659099712#1 659099712#2 201989371#0 201989371#1 201989371#1.4 201989371#1.20 201989371#2 201989371#2.4 201989371#2.24 201989371#2.80 201989371#2.102 201989371#2.113 201989371#2.143 201989371#2.151 201989371#2.158 201989371#2.159 201989371#3 201989371#4 201989371#4.9 201989371#4.13 201989371#4.22 -6338294#1 -6338294#0 -6338294#0.13 -6338294#0.33 -6338294#0.79 -6338294#0.94 -6338294#0.100 -6377274#2 -6377274#2.14 -6377274#2.19 -6377274#2.20 -6377274#2.34 -6377274#2.36 -6377274#2.56 -6377274#2.83 -6377274#1 -6377274#1.17 -6377274#1.27 -6377274#0 -6377274#0.5 698805191#0 698805191#0.5 698805191#1 698805191#2 698805190 698805190.31 -517583963#3 -517583963#3.30 -517583963#2 -517583963#2.22 -517583963#1 -517583963#1.13 -517583963#1.28 -517583963#1.48 -517583963#0 -517583963#0.2 -517583963#0.16 -517583963#0.29 -195433870#1 -7991097#3 -7991097#2 -7991097#2.2 -7991097#2.17 -7991097#1 -7991097#0 -7991097#0.34 -698994082 -698994082.6 -698994082.54 -430174917 -430174917.13 -22273562#0 -22273562#0.5 -22273562#0.14 22273560 22273560.7 22273560.25 22273560.34 22273560.43 22273560.50 22273560.57 22273560.68 22273560.81 -6365504#9 -6365504#9.25 22273567#2 22273567#2.7 184891166 184891177 227756441 227756441.8 227756441.14 227756442#0 227756442#0.17 -23089172#9 -23089172#9.6 -23089172#8 -23089172#7 -23089172#6 -23089172#6.22 6400775#31 6400775#31.7 6400775#32 6400775#32.41 6400775#33 -22016936#2 -22016936#1 -22016936#1.13 -22016936#0 22016934#0 22016934#0.16 -23089185#3 -23089185#3.8 -23089185#3.9 -23089185#3.23 -23089185#2 -23089185#1 -23089185#1.10 -23089185#1.20 -23089185#0 23089174 -6339579#6 -6339579#5 -6339579#5.3 -6339579#4 -6339579#3 -6339579#3.31 -6339579#2 -6339579#2.9 -6339579#1 -6339579#1.60 -6339579#1.62 6341088#1 6341088#1.6 6341088#1.171 6341088#2 6341088#2.7 6341088#3 430161670#0 430161670#1 430161670#1.32 22273549 22273549.9 22273549.20 22273549.25 22273549.32 -22374749 -22374749.8 -22374749.18 -22374749.27 -22374749.37 -22374749.48 -22374749.58 -430174919#1 -430174919#1.4 -430174919#1.15 -430174919#0 -6327971#4 -6327971#4.18 -6327971#4.25 -6327971#4.32 -6327971#4.45 -6327971#4.54 -6327971#3 -6327971#3.32 -6327971#2 -6327971#2.14 -6327971#2.24 -6327971#2.34 -6327971#2.49 -6347181#3 -6347181#3.11 -6347181#3.22 -6347181#3.43 -6347181#3.51 -6347181#3.63 -6347181#3.84 -6347181#2 -6347181#2.17 -6347181#2.24 -6347181#2.30 -6347181#2.35 -6347181#1 -6347181#1.6 -6347181#1.88 -6347181#0 -6347181#0.3 836650989 836650989.16 836650989.43 836650989.53 6407485 6407485.9 6407485.18 6407485.28 6407485.90 6407485.96 6407485.103 6407485.110 430174924#0 430174924#0.7 430174924#0.15 430174924#0.76 -288127321#6 -288127321#6.8 -288127321#5 -6400775#22 -6400775#21 -6400775#21.9 -6400775#21.26 -6400775#21.31 -6400775#21.41 -6400775#20 -6400775#20.16 -6400775#19 -6400775#19.6 -6400775#19.18 -6400775#19.19 -6400775#19.28 -6400775#19.34 -6400775#19.49 -6400775#19.58 -6400775#18 -6400775#18.1 -6400775#18.54 -6400775#17 -6400775#16 -6400775#15 -6400775#15.27 -6400775#15.60 -6400775#15.68 -6400775#15.72 -6400775#15.75 -6400775#14 -6400775#13 -6400775#13.4 -6400775#12 -6400775#11 -6400775#10 -6400775#10.91 -6400775#10.107 -6400775#9 -6400775#9.3 -6400775#8 -6400775#8.2 -6400775#7 -6400775#7.19 -6400775#7.34 -6400775#7.49 -6400775#7.64 -6400775#7.76 -6400775#6 -6400775#6.34 -6400775#5 -6400775#5.24 -6400775#5.53 -6400775#5.72 -6400775#5.79 -6400775#5.83 -6400775#5.99 -6400775#4 -6400775#3 -6400775#3.15 -6400775#3.35 -6400775#3.44 -6400775#3.53 -6400775#3.63 -6400775#3.76 -6400775#3.90 -6400775#3.101 -6400775#3.112 -6400775#3.121 -6400775#2 -6400775#2.9 -6400775#2.16 -6400775#2.23 -6400775#2.29 -6400775#1 -6400775#1.10 -6400775#1.28 -6400775#1.38 -6400775#1.49 -6400775#1.59 -6400775#0 -6400775#0.3 -6400775#0.8 24221419#0 24221419#0.12 24221419#0.22 24221419#0.35 24221419#0.47 24221419#1 24221419#1.10 24221419#2 24221419#2.4 24221419#2.15 24221419#2.26 24221419#2.38 24221419#2.49 24221419#3 24221419#4 24221419#4.8 24221419#4.15 24221419#4.24 24221419#4.32 24221419#4.41 24221419#4.49 24221419#4.57 24221419#4.69 24221419#4.82 24221419#4.94 24221419#4.100 24221419#4.109 24221419#4.119 24221419#4.127 24221419#5 24221419#5.9 24221419#5.16 24221419#5.22 24221419#5.29 -190579762#18 -190579762#18.4 -190579762#18.5 -190579762#18.14 -190579762#18.28 -190579762#18.50 -190579762#18.74 -190579762#17 -190579762#17.47 -190579762#16 -190579762#16.8 -190579762#16.11 -190579762#16.26 -190579762#16.39 -190579762#16.53 -190579762#16.67 -190579762#16.88 -190579762#16.106 -190579762#16.127 -190579762#15 -190579762#14 -190579762#13 -190579762#13.2 -190579762#13.22 -190579762#12 -190579762#12.22 -190579762#11 -190579762#11.4 -190579762#11.17 -190579762#11.28 -190579762#11.40 -190579762#11.52 -190579762#11.98 -190579762#11.111 -190579762#11.126 -190579762#11.141 -190579762#11.146 -190579762#11.153 -190579762#11.157 6336093#0 6336093#0.13 6336093#0.28 6336093#0.38 6336093#0.123 -6339085#8 -6339085#8.12 -6339085#8.19 -6339085#8.28 -6339085#8.38 -6339085#8.98 -6339085#8.116 -6339085#7 -6339085#7.29 -6339085#7.47 -6339085#7.68 -6339085#7.87 -6339085#7.110 -6339085#6 -6339085#5 -6339085#5.13 -6339085#5.24 -6339085#5.39 6338567#11 -6331171#0 -6331171#0.25 -6331171#0.43 -6331171#0.60 -6331171#0.76 -6331171#0.88 -6331171#0.103 -6331171#0.128 -6331171#0.142 -6331171#0.152 -6331171#0.164 -6331171#0.175 -6331171#0.204 -6331171#0.224 -6331171#0.241 -6331171#0.267 -6331171#0.278 -6331171#0.300 -6331171#0.317 -6331171#0.335 -6331171#0.377 -6331171#0.390 -6331171#0.400 190579779#3 190579779#3.8 190579779#3.15 190579779#3.31 190579811#0 190579811#0.14 190579811#0.31 190579811#0.46 190579811#0.61 190579811#0.77 190579811#0.101 190579811#0.116 190579811#0.136 190579811#0.154 190579811#0.171 190579811#0.189 190579811#0.205 190579811#0.225 190579811#0.230 -11043363#4 -11043363#4.9 -11043363#4.16 -11043363#4.34 -11043363#4.41 -11043363#3 -11043363#3.7 -11043363#2 -11043363#1 -11043363#0 7857575#0 7857575#0.10 7857575#0.24 7857575#0.39 7857575#0.57 7857575#0.75 7857575#0.88 7857575#0.126 7857575#0.144 7857575#0.146 7857575#0.162 7857575#0.184 7857575#0.212 7857575#0.218 7857575#0.224 7857575#0.229 7857575#0.241 7857575#0.275 7857575#0.303 7857575#0.315 7857575#0.324 7857575#0.326 7857575#0.339 7857575#0.350 7857575#0.357 7857575#0.360 7857575#0.410 7857575#1 7857575#1.42 7857575#1.66 7857575#1.85"/>
</vehicle>
<vehicle id = "veh8" type= "veh_passenger" depart="14420" >
[...]
</vehicle>
<vehicle id = "veh12" type= "veh_passenger" depart="21630" >
<route edges =" 797309093 797309091#0 797309091#0.10 797309091#1 797309091#1.7 797309091#2 797309091#2.10 797309091#2.15 797309091#3 377635148 377635148.3 377635148.5 -437142992 -437142992.6 -6329160 -6329160.124 -6329160.133 785854260#3 785854260#3.11 785854260#3.30 -763290363 -763290363.11 -24620691#4 -24620691#3 -24620691#2 -24620691#1 -6338310#3 -6338310#3.7 -34361036#1 -34361036#1.6 -34361036#1.121 -34361036#1.126 -34361036#1.131 -34361036#1.135 -34361036#0 -34361036#0.5 -201989352#2 -201989352#2.8 -201989352#1 -201989352#1.9 -201989352#1.29 -201989352#0 -195430724#15 -195430724#14 -195430724#14.20 -195430724#13 -195430724#13.78 10585275#1 10585275#1.9 10585275#2 -6357225 -6357225.7 -6332541#0 -6332541#0.83 -164659478#5 -164659478#5.7 -6360234#6 -6360234#6.186 -6360234#6.194 -6360234#5 -6360234#5.7 -6360234#5.16 -6360234#4 -6360234#3 -6360234#2 -6360234#1 -6360234#0 -6360234#0.31 416106321#3 416106320#0 416106320#1 -698994081#5 -698994081#4 -698994081#3 -698994081#2 -698994081#1 -698994081#0 -698796634#2 -698796634#1 -698796634#1.7 -698796634#1.12 -698796634#0 -541335494#11 -541335494#10 -541335494#10.2 -541335494#10.3 -541335494#9 -541335494#8 -541335494#7 -541335494#6 -541335494#5 -541335494#4 -541335494#4.39 -541335494#3 -541335494#3.6 -541335494#3.15 -541335494#2 -541335494#1 -541335494#0 -698994093#10 -698994093#9 -698994093#8 -698994093#8.7 -698994093#7 -698994093#7.11 -698994093#6 -698994093#5 -698994093#5.50 196779223#4 196779223#4.7 196779223#4.89 196779223#5 541334900#4 541334900#5 541334900#6 698994092#3 698994092#4 698994092#4.84 6348015 6348015.7 761330890 761330889#0 761330889#1 761330889#2 761330889#3 761330889#3.83 761330889#4 517593873#2 517593873#2.29 517593873#3 415876778 22278225#0 22278225#0.24 22278225#1 22278225#1.6 22278225#1.16 22278225#1.26 196779231#0 196779231#0.12 196779231#1 196779231#1.17 21452694#0 21452694#0.5 21452694#0.7 21452694#0.9 21452694#0.14 21452694#0.21 21452694#0.27 21452694#0.101 21452694#1 21452694#1.9 21452694#1.14 21452694#1.27 21452694#2 415878130#0 415878130#1 415878131#0 415878131#1 682209186 196779232 196779232.9 415878126 415878126.6 415878137#0 415878137#1 194859188#0 194859188#1 194859188#1.24 415878134#0 415878134#1 202177316#0 202177316#1 202177316#2 415878127 415878127.3 415878136#0 415878136#1 415876789 195433872 -168627978#4 -168627978#3 -168627978#2 -168627978#1 -168627978#1.20 -168627978#0 -168627978#0.13 -168627978#0.22 -168627978#0.59 -168627978#0.79 -168627978#0.98 -168627978#0.113 -168627978#0.142 -168627975 -168627975.12 -168627975.22 -168627975.32 -168627975.40 22273558 22273558.11 22273558.17 22273558.33 22273558.45 22273558.58 22273558.66 22273558.77 22273558.85 22273558.92 22273558.103 22273558.113 22273558.118 -7990899#2 -7990899#2.27 -7990899#1 -7990899#0 -7990899#0.77 -6400722#10 -6400722#10.8 -6400722#9 -6400722#8 -6400722#7 -6400722#6 -6400722#6.20 -6400722#6.23 -22273541#1 -22273541#1.7 -22273541#1.11 -22273541#0 -22273541#0.41 -22273541#0.43 22273546#3 22273546#3.1 22273546#3.3 22273546#3.4 22273546#3.6 -22278234 -22278234.3 -22278234.5 -22278234.190 -193256683#1 -193256683#1.8 -193256683#0 -164658212#1 -164658212#0 -164658212#0.85 -36985595#2 -36985595#2.8 -36985595#2.116 -36985595#2.205 -36985595#1 -36985595#0 -36985594 -22278229#3 -22278229#2 -22278229#1 -22278229#0 -22278229#0.17 -22278230 -22278230.7 -22278230.40 22278231 22278231.9 22278231.16 22278231.25 22278231.54 -22278226 -22278226.9 -22278226.55 -22277719#8 -22277719#8.6 -22277719#8.91 -22277719#7 -22277719#7.7 -22277719#7.92 -618189913#0 -618189913#0.6 -618189913#0.24 -618189913#0.90 -618189913#0.190 -618189913#0.204 -618189913#0.219 -618189913#0.231 -694455409#6 -694455409#6.8 -694455409#6.11 -694455409#6.20 -694455409#6.38 -694455409#5 -694455409#5.10 -694455409#5.23 -694455409#5.42 -694455409#5.118 -694455409#4 -694455409#4.29 -6384655 -6384655.8 -6384655.11 -6384655.19 -6384655.30 -6384655.40 -6384655.55 -6384655.73 -6384655.88 -6384655.109 -6384655.134 -6384655.150 -6384655.167 -6384655.183 -6384655.196 -6384655.214 -6384655.227 -6384655.239 6338567#3 6338567#3.80 6338567#4 6338567#4.78 -193256686#18 -193256686#18.7 -193256686#18.13 -193256686#18.29 -193256686#18.38 -193256686#18.57 -193256686#18.88 -193256686#18.120 -193256686#18.133 -193256686#18.145 -193256686#18.160 -193256686#18.174 -193256686#18.187 -193256686#18.196 -193256686#18.199 6336095#0 6336095#0.5 6336095#0.11 6336095#0.21 6336095#0.27 6336095#0.35 6336095#0.51 6336095#0.65 6336095#0.78 6336095#0.90 6336095#0.102 6336095#0.116 6336095#0.126 6336095#0.146 6336095#0.164 6336095#0.185 6336095#0.203 -6341488#11 -6341488#11.22 -6341488#11.37 -6341488#11.49 6372213#0 6372213#0.4 6372213#0.9 6372213#0.33 6372213#0.57 6372213#0.86 6372213#1 6372213#1.9 6372213#1.21 6372213#1.68 6372213#1.81 6372213#1.88 6372213#1.98 6372213#1.111 -6369262#0 -6369262#0.37 -6369262#0.66 -6341488#7 -6341488#7.25 -6341488#7.36 -6341488#7.76 -6341488#7.99 -6341488#6 -6341488#5 -6341488#5.27 -6341488#5.44 -6341488#5.62 -6341488#5.81 -6341488#5.125 -6341488#5.146 -6341488#5.159 -6341488#5.173 -6341488#5.186 -6341488#5.210 -6341488#5.226 -6341488#4 -6341488#4.10 -6341488#4.17 -6341488#4.26 -6341488#3 -6341488#2 -6341488#1 -6341488#1.8 -6341488#1.15 -6341488#1.22 -6341488#1.29 -6341488#1.35 -6341488#1.41 -6341488#1.48 -6341488#1.56 -6341488#1.123 -6341488#1.134 -6341488#1.145 -6341488#0 -6341488#0.9 -6341488#0.19 -6341488#0.28 -6341488#0.39 -6341488#0.86 -6341488#0.94 190579820 190579820.7 190579803 190579803.140 190579803.149 190579803.157 190579803.166 190579803.175 190579817#0 190579817#0.11 190579817#1 190579817#1.5 190579817#1.14 190579817#1.25 190579817#1.37 190579817#1.55 190579817#1.68 6333513#0 6333513#0.10 6333513#0.40 6333513#0.51 6333513#0.62 6333513#0.73 6407689#0 6407689#1 6407689#1.22 6407689#1.35 6407689#1.53 6407689#1.68 6407689#1.82 -6352134#2 -6352134#2.15 -6352134#2.29 -6352134#2.47 -6352134#2.62 -6352134#2.110 -6352134#1 -6352134#0 -6352134#0.20 -6352134#0.39 -6352134#0.53 -6352134#0.63 -6352134#0.79 -11043364#1 -11043364#0 -11043364#0.73 -11043364#0.81 -7857575#1 -7857575#1.27 -7857575#1.57 -7857575#1.75 -7857575#1.83 -7857575#1.99 -7857575#1.115 -7857575#1.152 -7857575#1.166 -7857575#1.179 -7857575#1.219 -7857575#1.229 -7857575#1.268 -7857575#1.290 -7857575#1.315 -7857575#1.332 -7857575#1.343 -7857575#1.361 -7857575#1.378 -7857575#1.390 -7857575#1.402 -7857575#1.416 -7857575#1.443 -7857575#1.452 -7857575#1.462"/>
</vehicle>
<vehicle id = "veh13" type= "veh_passenger" depart="21630" >
<route edges =" -316633577#1 -316633577#0 -797309094#1 -797309094#0 -797309094#0.6 -797309094#0.12 -797309095 -165864174#3 -165864174#2 -165864174#1 -34361024#1 -34361024#0 -34361024#0.80 -188703042#5 -188703042#4 -188703042#4.59 -6402088#0 -6402088#0.9 -6402088#0.92 10585277#3 10585277#4 24620197 24620197.7 24620197.8 24620197.18 -6405162#1 -6405162#1.8 -6405162#1.26 -6405162#1.79 -6405162#0 -6405162#0.9 -6405162#0.41 -6405162#0.58 -6405162#0.69 -6405162#0.78 -6405162#0.84 -6405162#0.90 -6356253 -6356253.9 -6356253.18 -6356253.25 -6356253.32 -6356253.183 -6356253.191 -6356253.193 -201989360#2 -201989360#2.6 -201989360#2.14 -201989360#1 -201989360#1.34 -201989360#0 -201989360#0.20 -201989360#0.24 -656030857 -656030854 -21460887 -21460887.18 -201989376 -201989376.8 -201989376.15 -698994088#2 -698994088#1 -698994088#1.18 -698994088#0 -698994088#0.76 -698994089#1 -698994089#1.4 -698994089#0 -21460654 -21460654.2 -21460654.3 -21460654.34 -21460654.121 -21460654.130 -21460654.140 -24620176#2 -24620176#2.10 -24620176#2.23 -24620176#2.35 -24620176#1 -24620176#0 21459815#0 21459815#1 -6339489#1 -6339489#1.6 -6339489#0 -6339489#0.112 -6339489#0.116 -6339489#0.117 -7781335 -7781335.7 -7781335.9 -7781335.148 -7781335.152 -6403136 -6403136.5 -6403136.98 -6403136.101 659099712#0 659099712#0.28 659099712#0.35 659099712#1 659099712#2 201989371#0 201989371#1 201989371#1.4 201989371#1.20 201989371#2 201989371#2.4 201989371#2.24 201989371#2.80 201989371#2.102 201989371#2.113 201989371#2.143 201989371#2.151 201989371#2.158 201989371#2.159 201989371#3 201989371#4 201989371#4.9 201989371#4.13 201989371#4.22 -6338294#1 -6338294#0 -6338294#0.13 -6338294#0.33 -6338294#0.79 -6338294#0.94 -6338294#0.100 -6377274#2 -6377274#2.14 -6377274#2.19 -6377274#2.20 -6377274#2.34 -6377274#2.36 -6377274#2.56 -6377274#2.83 -6377274#1 -6377274#1.17 -6377274#1.27 -6377274#0 -6377274#0.5 698805191#0 698805191#0.5 698805191#1 698805191#2 698805190 698805190.31 -517583963#3 -517583963#3.30 -517583963#2 -517583963#2.22 -517583963#1 -517583963#1.13 -517583963#1.28 -517583963#1.48 -517583963#0 -517583963#0.2 -517583963#0.16 -517583963#0.29 24054271 24054271.10 24054271.15 24054271.19 -698994085#1 -195433871#1 -195433871#0 -618326398#3 -618326398#2 -618326398#1 -618326398#1.45 -618326398#0 -618326398#0.5 -227756442#2 -227756442#2.6 -227756442#1 -227756442#1.24 -227756442#0 -227756442#0.6 184891171 184891171.8 184891171.14 -184891177 -184891166 -22273567#2 -22273567#2.26 -6365504#8 -6365504#8.5 -6365504#7 -6365504#6 -6365504#6.53 -6400775#27 -6400775#27.6 -6400775#26 -6400775#26.2 -6400775#26.21 -6400775#25 -6400775#25.7 -6400775#25.85 -6400775#25.87 -6341088#1 -6341088#1.6 -6341088#1.171 -6339579#0 -6339579#0.7 -6339579#0.8 -288127321#1 -6339575#4 -6339575#4.7 -6339575#3 -6339575#3.102 -6339575#3.107 -6339575#2 -6339575#2.7 -6339575#2.110 -6339575#2.116 -6339575#1 -6339575#1.10 -6339575#1.21 -6339575#1.33 -6339575#1.50 -6339575#1.56 -6339575#0 -6339575#0.7 -6339575#0.24 -6339575#0.34 -6339575#0.44 -6339575#0.53 -6339575#0.96 -6339575#0.102 -6339575#0.107 -6339575#0.112 -6339575#0.120 -6347531 -6347531.58 -6347531.76 -6347531.94 6400722#1 -22278233#1 -22278233#0 -22278233#0.43 -618189913#5 -618189913#5.7 -618189913#5.17 -618189913#5.34 -618189913#4 -618189913#4.5 -618189913#4.9 -618189913#4.25 -618189913#3 -618189913#2 -618189913#1 -618189913#1.76 -618189913#1.91 -22277719#6 -22277719#6.7 -190380691#1 -190380691#0 -190380691#0.51 -190380691#0.140 6349469 6349469.64 6349469.93 6338634#0 6338634#1 190380689#0 190380689#1 -22277719#3 -22277719#2 -22277719#1 -22277719#1.48 -22277719#1.63 -22277719#0 -6400775#3 -6400775#3.15 -6400775#3.35 -6400775#3.44 -6400775#3.53 -6400775#3.63 -6400775#3.76 -6400775#3.90 -6400775#3.101 -6400775#3.112 -6400775#3.121 -6400775#2 -6400775#2.9 -6400775#2.16 -6400775#2.23 -6400775#2.29 -6400775#1 -6400775#1.10 -6400775#1.28 -6400775#1.38 -6400775#1.49 -6400775#1.59 -6400775#0 -6400775#0.3 -6400775#0.8 24221419#0 24221419#0.12 24221419#0.22 24221419#0.35 24221419#0.47 24221419#1 24221419#1.10 24221419#2 24221419#2.4 24221419#2.15 24221419#2.26 24221419#2.38 24221419#2.49 24221419#3 24221419#4 24221419#4.8 24221419#4.15 24221419#4.24 24221419#4.32 24221419#4.41 24221419#4.49 24221419#4.57 24221419#4.69 24221419#4.82 24221419#4.94 24221419#4.100 24221419#4.109 24221419#4.119 24221419#4.127 24221419#5 24221419#5.9 24221419#5.16 24221419#5.22 24221419#5.29 -190579762#18 -190579762#18.4 -190579762#18.5 -190579762#18.14 -190579762#18.28 -190579762#18.50 -190579762#18.74 6402116#1 6402116#1.46 6402116#1.57 6402116#1.69 6402116#1.82 6402116#1.97 6402116#1.112 6402116#1.123 6402116#1.135 6402116#1.161 6402116#1.185 6402116#2 6402116#3 6402116#3.18 6402116#3.33 6402116#3.42 6402116#3.53 6402116#3.68 6402116#3.75 6402116#3.94 6402116#4 6402116#5 6402116#5.14 6402116#5.25 6402116#5.32 6402116#5.50 6402116#5.66 6402116#5.85 6402116#6 6402116#6.11 6402116#6.20 6402116#6.33 6402116#6.43 6402116#6.52 6402116#6.63 6402116#6.79 6402116#7 6402116#7.47 6402116#7.61 6402116#7.73 6402116#8 6402116#8.12 6402116#8.23 6402116#8.37 6402116#8.51 6402116#8.85 6375836#4 6375836#4.22 6375836#4.57 6375836#4.73 6375836#4.90 6375836#5 6375836#5.30 6375836#5.38 6375836#5.46 6375836#5.53 6375836#5.81 6375836#5.93 6375836#5.106 6375836#5.131 6375836#5.148 6375836#5.164 6375836#5.175 -6341477#2 -6341477#2.15 -6341477#2.38 -6341477#2.61 -6341477#1 -6341477#1.5 -6341477#1.21 -6341477#1.39 -6341477#1.54 -6341477#1.69 -6341477#0 -6341477#0.39 -6341477#0.52 -6341477#0.73 -6341477#0.87 -6341477#0.97 -6341488#22 -6341488#22.6 -6341488#22.11 -6341488#22.15 -6341488#22.21 -6341488#22.32 -6341488#22.49 -6341488#21 -6341488#21.11 -6341488#21.21 -6341488#21.37 -6341488#21.75 -6341488#21.84 -6341488#21.96 -6341488#20 -6341488#20.8 -6341488#20.16 -6341488#20.25 -6341488#20.33 -6341488#19 -6341488#18 -6341488#17 -6341488#17.16 -6341488#17.38 -6341488#17.51 -6341488#17.77 -6341488#17.134 -6336093#4 -6336093#4.17 -6336093#4.38 -6336093#4.53 -6336093#4.79 -6336093#4.90 -6336093#3 -6336093#3.13 -6336093#3.25 -6336093#3.39 -6336093#3.120 -6336093#3.127 -6336093#3.135 -6336093#2 -6336093#1 -6336093#0 -6336093#0.17 -6336093#0.102 -6336093#0.112 -6336093#0.127 -190579762#10 -190579762#10.15 -190579762#10.28 -190579762#10.45 -190579762#9 -190579762#9.17 -190579762#9.29 -190579762#9.42 -190579762#9.56 -190579762#9.71 -190579762#9.81 6338567#8 6338567#8.11 6338567#9 6338567#10 6338567#11 6338567#12 -190579811#1 -190579811#1.12 -190579811#1.20 -190579811#1.36 -190579811#1.50 -190579811#1.69 -190579811#1.82 -190579811#1.101 -190579811#1.120 -190579811#1.121 -11043363#4 -11043363#4.9 -11043363#4.16 -11043363#4.34 -11043363#4.41 -11043363#3 -11043363#3.7 -11043363#2 -11043363#1 6361146#0 6361146#0.52 6361146#0.64 6361146#0.89 6361146#0.103 6361146#0.116 6361146#0.128 6361146#0.148 6361146#0.201 6361146#0.214 6361146#0.230 6361146#0.246 6361146#0.259 6361146#0.276 -6361141 -6361141.7 194872395#4 194872395#4.5 194872395#4.9 194872395#4.12 194872395#4.17 194872395#4.22 194872395#4.29 194872395#4.115 194872395#4.139 194872395#4.158 194872395#4.166 194872395#4.175 194872395#4.193 194872395#4.217 194872395#4.233 7857575#0 7857575#0.10 7857575#0.24 7857575#0.39 7857575#0.57 7857575#0.75 7857575#0.88 7857575#0.126 7857575#0.144 7857575#0.146 7857575#0.162 7857575#0.184 7857575#0.212 7857575#0.218 7857575#0.224 7857575#0.229 7857575#0.241 7857575#0.275 7857575#0.303 7857575#0.315 7857575#0.324 7857575#0.326 7857575#0.339 7857575#0.350 7857575#0.357 7857575#0.360 7857575#0.410 7857575#1 7857575#1.42 7857575#1.66 7857575#1.85"/>
</vehicle>
</routes>
