<?xml version="1.0" encoding="UTF-8"?>
<routes xmlns:xsi="http: // www.w3.org/2001/XMLSchema-instance" xsi:noNamespaceSchemaLocation="http: // sumo.dlr.de/xsd/routes_file.xsd">
<vType id="veh_passenger" vClass="passenger"/>

<vehicle id = "veh0" type= "veh_passenger" depart="0" >
<route edges =" -813722269#3 -813722269#3.7 -813722269#3.48 -813722269#3.84 -813722269#3.86 620762213#0 620762213#0.9 620762213#0.88 620762212#0 620762212#0.8 620762212#0.52 6343949#6 6343949#7 6343949#8 6343949#8.52 6343949#10 6343949#10.49 6343949#12 6343949#12.47 -525497324#3 -525497324#2 243349944#4 243349944#4.53 243349944#6 243349944#7 -460419011#3 -460419011#2 6464126#3 6464126#3.49 6464126#5 -460419028#3 243349338#0 243349338#0.18 243349338#1 243349338#2 243349338#3 243349338#3.49 243349338#5"/>
</vehicle>
<vehicle id = "veh1" type= "veh_passenger" depart="0" >
<route edges =" -6457203#16 -6457203#16.59 975126260#0 975126260#0.49 -6505136#16 6368504#5 6368504#5.48 6368504#7 6368504#7.50 -6513783#8 -6513783#7 37657905#3 37657905#3.48 37657905#5 37657905#5.10 37657905#5.46 37657905#7 37657905#7.49 476409329 -6383185#5 6384373#1 6384373#2 6384373#2.45 6384373#2.56 -65588097#1 -65588097#1.119 337818330 6463035#0 6463035#0.14 6463035#0.38 6463035#3 -6495801#0 -185485132#12 -185485132#12.125 -185485132#11 -185485132#11.16 243349945#9 243349945#9.50 -6494975#8 -6494975#7 -6494975#6 -6494975#6.81 256994205#3 428246847#0 428246847#0.8 428246847#0.22 6386110#0 6386110#0.16 6386110#0.25 6386110#0.55 -243349338#6 -243349338#6.14"/>
</vehicle>
<vehicle id = "veh2" type= "veh_passenger" depart="0" >
<route edges =" -6522868 -6403883#7 -6403883#6 -6403883#5 -6403883#4 -6403883#3 -6403883#2 158882505#7 158882505#8 8111709#0 8111709#0.47 8111709#2 8111709#2.49 8111709#4 8111709#4.49 -6513783#5 6384359#8 6384359#9 6384359#9.26 -6381494#3 -6381494#3.43 6463017#6 6463017#6.48 -6386837#0 337739268 337739268.124 337739267#0 337818462 337818462.3 337818462.6 337739271#1 337739271#1.6 337739269#0 -460419011#4 243349944#8 -801995081#5 -801995081#5.197 -801995081#5.209 -801995081#2 -801995081#2.109 -801995081#0 243339793#4 243339793#5 243339793#6 243339793#6.50 243339793#6.74 -22917112 -185485118#1 6514312#0 6514312#0.70 -6523501#6 -6523501#6.6 185485127#1 -6494970#4 -6494970#4.172 -6494970#2 -6494970#2.4 -6494970#2.100 6358721#0 6358721#0.9 6415147#4 6415147#5 6415147#6 6351349#2 6351349#3 6351349#3.107 6351349#5 -185483733 -6414318#4 -157167355#0"/>
</vehicle>
<vehicle id = "veh3" type= "veh_passenger" depart="0" >
<route edges =" 817434294 817434294.10 817434294.36 817434294.44 817434294.63 817434294.119 6343949#0 6343949#0.7 6343949#0.86 6343949#3 6343949#3.9 6343949#3.49 620762212#3 6430729#6 6430729#6.47 6430729#6.48 6430729#9 6430729#9.48 6430729#11 6430729#11.51 6430729#13 6430729#13.48 6430729#15 6430729#15.48 6430729#17 6430729#17.51 -620762224#0 -66558981#7 -66558981#7.65 -66558981#7.83 -66558981#7.105 -66558981#7.123 -66558981#2 -66558981#2.131 -66558981#2.234 525497323#2 525497323#2.81 -481291488#2 -481291488#1 -481291488#0 -481291488#0.69 -481291488#0.82 -6447971#10 -6447971#10.11 -6447971#9 -6447971#8 -6447971#7 -6447971#6 -6447971#5 -6447971#4 169917351#6 169917351#7 169917351#7.49 169917351#9 169917351#9.48 169917351#9.87 169917351#12 169917351#12.9 169917351#12.42 169917351#12.90 -6360239#3 -6360239#3.6 -6360239#3.69 -6360239#3.102 6487445#0 6487445#0.8 6415147#0 6415147#0.61 6449462#3 6449462#3.7 6449462#3.50 6449462#3.60 6449462#3.72 6449462#3.87 795669782#0 795669782#0.54 795669782#2 6371720#2 6371720#3 157167355#0"/>
</vehicle>
<vehicle id = "veh4" type= "veh_passenger" depart="3605" >
<route edges =" -813722269#3 -813722269#3.7 -813722269#3.48 -813722269#3.84 -813722269#3.86 -569505976#2 -569505976#2.9 -569505976#2.88 -569505976#2.115 -569505976#2.119 428246438#0 428246438#0.8 428246440#0 428246440#0.62 -800744528#1 -800744528#1.8 -800744528#1.16 -800744528#1.37 -800744528#1.72 826314456#0 826314456#0.9 826314456#0.50 826314456#0.96 826314456#0.103 349901821 825336588#0 825336588#0.7 349901822#2 349901822#2.21 332092195#0 332092195#0.9 332092195#0.74 460423532#0 460423532#0.2 620762218#0 620762218#0.55 620762218#0.66 620762218#0.68 620762218#0.81 620762218#3 620762218#3.7 620762218#5 620762218#5.18 620762218#5.80 -66558981#7 -66558981#7.65 -66558981#7.83 -66558981#7.105 -66558981#7.123 243349944#6 243349944#7 -460419011#3 -460419011#2 6464126#3 6464126#3.49 6464126#5 6464126#6 6464126#7 6464126#7.50 22917113#2 243349338#2 243349338#3 243349338#3.49 243349338#5"/>
</vehicle>
<vehicle id = "veh5" type= "veh_passenger" depart="3605" >
<route edges =" 6457203#17 6457203#18 6457203#18.8 6457203#18.11 6457203#20 6457203#20.10 6457203#20.25 6457203#20.27 242516209#0 242516209#0.45 242516209#2 242516209#2.53 37657904 603522176#0 603522176#0.48 -6513783#10 -603522173#1 -603522173#1.50 603522174#0 6368504#7 6368504#7.50 -6513783#8 -170683231#20 -170683231#20.51 6381494#12 6381494#12.56 6368504#12 6368504#12.37 6368504#12.47 638348589 263666867#3 263666867#3.49 476409333#0 476409333#0.45 476409333#2 476409333#2.45 6523125#0 6523125#1 -6495798#4 -6495798#3 -476409332#6 -476409332#5 -65588097#6 170683231#7 170683231#8 170683231#8.40 170683231#10 170683231#10.39 170683231#12 170683231#12.36 170683231#12.50 170683231#12.64 -336904472#4 -336904472#4.96 37657905#7 37657905#7.49 476409329 61151096 -6460085#4 -6460085#4.20 -6460085#3 -6460085#3.55 -6384373#1 -6383185#4 -6383185#4.120 -6383185#2 -6383185#2.45 -6383185#2.115 737709039#2 737709039#2.53 737709039#2.59 537678339#0 537678339#0.28 -460399791#2 -460399791#2.15 -460399791#2.17 -460399791#2.82 -460399791#2.105 465799093#0 465799093#0.8 465799093#0.46 465799093#0.91 337818330 428315592#0 428315592#0.12 428315592#0.53 428315592#0.95 6448612#4 6448612#4.11 6448612#6 6448612#6.328 -170683231#3 -170683231#2 -170683231#1 -170683231#1.43 170683288#1 170683288#1.76 170683288#1.83 476409332#9 476409332#9.68 -6349126#4 -6349126#4.29 -6349126#4.47 -6349126#4.62 -6349126#4.68 -6349126#4.76 -6349126#4.79 -6349126#4.104 -854081622#0 -854081622#0.13 -337818332#2 -337818332#2.7 -337818332#2.70 -912599280 -912599281#1 -912599281#1.10 -912599281#1.25 -912599281#1.45 -6349021#2 -6349021#2.11 6464371#0 6464371#0.8 6464371#0.32 40416130#0 -6349133#2 -6349133#2.120 -6349133#1 -6349133#0 336908262#2 336908262#2.49 -160624558#4 -160624558#4.98 -160624558#2 243349945#17 243349945#18 -532125609#2 243349944#27 243349944#28 263665040#2 263665040#2.119 243349945#21 -243349941#11 243349944#30 243349944#30.41 -6409640#11 -6447445#23 -6447445#23.8 -6447445#23.42 -243349941#8 -243349941#7 -243349941#7.26 -243349941#5 -6464130#6 243349331#2 243349331#2.15 243349331#2.84 460419027 352434856 352434856.35 460419010 460419010.7 460419010.24 -6447445#17 -6447445#16 -532125609#0 -6449970#12 -6449970#11 6464130#4 -6506505#5 -6336174#4 -6336174#3 -6336174#3.40 -359671039#0 359671040#0 359671040#0.40 -6449970#8 259277920#1 -6506505#3 -6425683#0 -6449970#5 -185485117#3 -185485117#2 -185485117#1 6472293#4 6472293#4.162 6472293#6 6472293#6.106 795671505#0 795671505#0.10 795671505#0.55 795671505#2 243349338#8 243349338#9 359671039#3 -438895608#0 -438895608#0.27 438895607 438895607.119 6447445#14 359671039#5 359671039#5.12 -243349944#25 -243349944#24 -243349944#24.50 -243349944#22 -243349944#22.50 243349942#0 243349942#0.100 -243349945#12 -243349945#12.49 6494975#9 6494975#9.108 6494975#9.119 6494975#10 6494975#10.11 6494975#10.19 6356676#0 6356676#1 -170683665#2 -170683665#2.49 -170683665#2.51 -170683665#2.95 -6495801#1 -6463035#3 -6448612#1 -6448612#1.133 805680044#5 805680044#5.6 805680044#5.49 -185485132#12 -185485132#12.125 -185485132#11 -185485132#11.16 -243349945#8 -243349945#8.11 -243349945#8.51 -22917113#6 -22917113#5 -22917113#4 256994205#1 256994205#2 256994205#2.24 256994205#2.72 256994205#3 428246847#0 428246847#0.8 428246847#0.22 6386110#0 6386110#0.16 6386110#0.25 6386110#0.55 -243349338#6 -243349338#6.14"/>
</vehicle>
<vehicle id = "veh6" type= "veh_passenger" depart="3605" >
<route edges =" -6457203#16 -6457203#16.59 -6323849#6 -6323849#6.43 6403883#7 6403883#8 -6428544#15 -6428544#15.8 -6428544#13 32143939 -263668130#2 -263668130#2.17 -263668130#2.32 -263668130#2.43 -263668130#2.52 -263668130#2.58 -263668130#2.67 -263668130#2.74 -263668130#2.85 6346524#7 -6428544#10 -6428544#10.8 -6428544#10.15 -6428544#10.34 -6428544#10.40 -6428544#10.45 -6428544#10.52 -6428544#6 -428098976#2 -428098976#2.133 -428098976#2.136 -428098973 6523130 -337099385#0 -337099385#0.153 -337099385#0.159 -6368665#5 -6368665#5.9 -6368665#5.17 -6368665#5.26 -6368665#5.35 -6368665#5.53 -158882511#0 -621283354 -6346308#11 -6346308#11.43 -6346308#11.48 752851600#13 752851600#13.62 8071894#4 462701467#0 462701467#0.142 -8071895#1 -8071895#0 6358515#1 -215404534#2 -215404534#1 215404533 51476458 6366765#0 6366765#0.3 6366765#0.7 6366765#0.10 6366765#0.14 6366765#0.17 6366765#0.86 6366765#0.127 6366765#0.141 6366765#4 6366765#5 6366765#5.118 6414229#4 6414229#4.5 6414229#4.47 6414229#4.88 -749754758#7 -749754758#7.3 -749754758#7.122 -6464391#12 -6464391#12.4 -6464391#12.46 -6464391#12.88 -6464391#8 -6464391#8.3 -6464391#8.64 6358524#6 6358524#6.5 6358524#6.55 6414229#12 6414229#13 6414229#13.35 6414229#13.70 896104580#0 896104580#0.9 158882517#0 158882517#1 158882517#2 158882517#3 -160552467#8 -158882505#5 -158882505#5.47 -158882505#3 -158882505#2 -6368665#1 -6368665#1.49 -6368665#1.91 -6368665#1.93 171739214#11 171739214#12 171739214#13 171739214#14 171739214#15 171739214#15.31 171739214#15.57 6403883#1 158882505#7 -6469837#1 -6469837#1.51 171739214#21 171739214#21.8 171739214#21.28 171739214#21.32 -6457203#0 -8071899 -292812446#5 -292812446#4 -292812446#4.6 -292812446#4.35 -292812446#4.44 -292812446#4.56 -292812446#4.99 -292812446#4.111 292812445#0 292812445#0.35 292812445#0.50 6505136#0 6505136#0.18 6505136#0.27 6505136#0.73 6505136#0.87 6505136#0.118 6463017#0 6463017#0.48 6464042#2 6464042#2.9 6384359#6 6384359#6.48 6384359#8 6384359#9 6384359#9.26 -6381494#3 -6381494#3.43 -6381494#1 -6381494#0 292812445#9 292812445#9.49 337739268 337739268.124 337739267#0 337739267#1 337739271#0 337739271#0.10 337739271#0.13 337739271#1 337739271#1.6 337739269#0 337739269#1 337739269#1.30 337739269#3 337739269#3.69 396055523#5 396055523#5.8 396055523#5.42 396055523#7 396055523#7.122 -243349944#9 -801995081#5 -801995081#5.197 -801995081#5.209 -801995081#2 -801995081#2.109 -801995081#0 243339793#4 243339793#5 -6360256#0 -6360256#0.8 486875123#0 486875123#0.56 486875123#0.88 -185485118#1 -185485118#0 -185485118#0.55 -185485118#0.102 -185485118#0.141 -6452520#7 -6452520#7.84 -6452520#5 -6452520#5.4 -6452520#5.85 -169917351#18 -169917351#18.7 -169917351#18.75 -6360239#3 -6360239#3.6 -6360239#3.69 -6360239#3.102 256996976#3 256996976#3.7 256996976#3.76 6449462#0 6449462#0.9 6449462#0.46 6415147#2 6415147#3 6415147#4 428247193#3 428247193#3.27 486632638#0 486632638#0.14 486632638#0.27 -428247197#1 -428247197#1.9 -336908264#3 -336908264#2 -336908264#2.145 185485127#4 185485127#4.10 185485127#6 -6472293#2 -6507813#0 -6391682#1 -6391682#1.146 6489809#0 6489809#0.40 6415147#6 -6351349#1 -6351349#1.48 -6351349#1.82 256996977#6 256996977#6.43 256996977#6.78 256996977#8 620762211#0 620762211#0.4 620762211#0.8 620762211#0.77 620762211#1 620762211#1.10 620762211#1.36 620762211#1.73 620762211#1.115 620762211#1.170 620762211#1.178 -256997441#8 -256997441#8.6 -6354836#3 -642753173 6351349#3 6351349#3.107 6351349#5 -185483733 -6414318#4 -157167355#0"/>
</vehicle>
<vehicle id = "veh7" type= "veh_passenger" depart="3605" >
<route edges =" 817434294 817434294.10 817434294.36 817434294.44 817434294.63 817434294.119 6343949#0 6343949#0.7 6343949#0.86 6343949#3 6343949#3.9 6343949#3.49 6343949#6 6343949#7 -8071898#2 6430729#11 6430729#11.51 -65588093#2 6343949#10 6343949#10.49 6440348#11 6440348#11.4 6440348#11.7 6440348#11.62 6440348#11.73 6430729#15 6430729#15.48 -525497324#7 -525497324#7.39 -525497324#7.54 -525497324#7.112 -525497324#3 -620762218#4 -620762218#4.108 -6440348#7 -6440348#7.9 243349944#0 243349944#0.4 243349944#0.20 243349944#0.49 243349944#4 243349944#4.53 -66558981#2 -66558981#2.131 -66558981#2.234 -525497323#1 -525497323#1.48 -6512920#11 -6512920#11.12 -6512920#11.49 -6512920#11.62 -6512920#11.76 -6512920#11.147 -6512920#7 -6512920#7.4 -6512920#7.122 -6512920#7.124 6464138#12 6464138#12.51 6464138#14 -481291488#1 6464126#0 6464126#0.46 6464126#0.49 -460419011#1 -460419011#1.97 -243339793#1 -243339793#1.46 -353690154#16 -353690154#16.48 -6481166#9 -6481166#9.8 486874837#1 486874837#2 486874837#2.47 -460419014 -460419014.67 -460419007#0 -460419007#0.17 -460419007#0.46 -6515975#8 6463532#2 6463532#2.50 -6380913#7 -6380913#7.22 6467507#8 6467507#8.87 6516509#8 6516509#8.7 6516509#8.85 -6507809#9 -6507809#9.9 -6507809#9.50 -6507809#6 -6507809#6.47 6515975#6 -6467507#5 -6467507#5.50 -6467507#3 -6481166#5 -6481166#4 169917351#4 169917351#4.51 169917351#6 169917351#7 169917351#7.49 169917351#9 169917351#9.48 169917351#9.87 6516509#15 6516509#15.7 6516509#15.35 6516509#15.48 6516509#15.68 6516509#15.70 6516509#15.79 6516509#15.84 6516509#15.98 6516509#15.101 256996976#0 256996976#0.11 256996976#0.20 256996976#0.46 256996976#0.79 6487445#0 6487445#0.8 6415147#0 6415147#0.61 6449462#3 6449462#3.7 6449462#3.50 6449462#3.60 6449462#3.72 6449462#3.87 795669781 795669781.52 795669781.56 460421481#1 460421481#1.61 460421481#1.85 -428247194#1 -428247194#1.9 -428247194#1.28 -157167355#3 -157167355#3.5 -157167355#3.43 -6414318#3 6497081#8 6497081#9 6497081#9.126 369455641#1 369455641#1.28 369455641#1.78 512126022#0 512126022#0.11 512126022#0.46 185483738#4 185483738#4.14 6485999#0 6485999#0.42 6485999#2 6485999#3 6485999#3.70 -6354794#0 -6467368#4 -6467368#3 -6467368#2 -661086629#2 -661086629#2.7 -6371720#6 -6371720#5 -6371720#5.41 157167355#0"/>
</vehicle>
<vehicle id = "veh8" type= "veh_passenger" depart="7210" >
<route edges =" -816616074#1 -816616074#1.10 -816616074#1.14 -816616074#1.119 428341734#4 428341734#4.8 428246439#0 428246439#0.14 428246438#0 428246438#0.8 428246440#0 428246440#0.62 800744529#0 800744529#0.7 800744529#0.52 800744529#0.89 -349901821 349901822#0 349901822#0.9 349901822#2 349901822#2.21 -620762214 179551719 179551719.37 179551719.46 179551719.51 179551719.88 179551719.93 179551719.97 65588093#0 65588093#0.3 65588093#0.6 65588093#0.9 65588093#0.30 6343949#10 6343949#10.49 -6440348#10 -6440348#10.4 -6440348#10.6 -6440348#10.48 -6440348#10.83 620762218#3 620762218#3.7 -525497324#2 243349944#4 243349944#4.53 -66558981#2 -66558981#2.131 -66558981#2.234 525497323#2 525497323#2.81 40416132#0 40416132#0.19 40416132#1 40416132#1.90 256994206#0 256994206#0.8 256994206#0.43 256994206#0.60 460419028#0 460419028#0.11 460419028#0.49 460419028#0.79 460419028#0.95 243349338#0 243349338#0.18 243349338#1 -22917113#2 6464126#9 6464126#9.46 6464126#11 6464126#11.50 6494975#2 243349338#5"/>
</vehicle>
<vehicle id = "veh9" type= "veh_passenger" depart="7210" >
<route edges =" -6457203#16 -6457203#16.59 975126260#0 975126260#0.49 975126260#2 975126260#2.48 603522174#0 6368504#7 6368504#7.50 -6513783#8 -6513783#7 37657905#3 37657905#3.48 6381494#9 6381494#9.36 6381494#9.62 6381494#12 6381494#12.56 6368504#12 6368504#12.37 6368504#12.47 -336904472#5 -336904472#5.13 -336904472#4 -336904472#4.96 37657905#7 37657905#7.49 476409329 -6383185#5 -6384373#0 476409328#2 476409328#2.118 8071925#0 8071925#0.9 8071925#0.55 8071925#2 8071925#2.36 8071925#2.74 6460085#0 6460085#0.9 6460085#0.43 6460085#0.101 6460085#2 6460085#2.86 6464374 65588097#4 65588097#4.20 170683231#7 170683231#8 170683231#8.40 6383185#7 476409332#2 476409332#2.43 6460085#7 6460085#7.14 6460085#7.41 6345330#0 65588097#9 -6523125#0 6460085#12 6460085#12.26 735164737 735164737.10 735164737.15 6451291#0 6451291#0.7 6451291#0.16 6451291#0.45 735164739 735164739.21 735164739.27 735164739.31 -394736758#7 -394736758#7.6 -394736758#7.14 -394736758#7.26 -394736758#7.93 6428555#0 6428555#0.17 6428555#0.32 6428555#0.51 6448615#7 6448615#8 6483146#3 6483146#3.48 159937059#2 159937059#3 159937059#3.69 159937059#3.76 6428558#0 6428558#0.9 6428558#0.56 6428558#0.147 6428558#0.154 6428558#0.157 -170683288#8 -170683288#8.6 -170683288#8.15 -6459736#10 -6459736#10.20 -6459736#10.53 -6459736#10.60 -6495798#8 -6495798#8.42 6522860#11 6522860#11.100 6522860#11.110 6522860#14 6522860#14.12 6522860#14.34 6522860#14.81 6522860#14.110 6522860#14.119 -6349125#3 -6349125#3.8 -6349125#3.20 -6349125#2 -6349125#2.60 -6349125#2.61 -6349125#2.68 -6349125#2.76 -6349125#2.79 -476409332#11 -476409332#11.8 -476409332#10 -476409332#10.10 -170683288#1 -170683288#1.6 -170683288#1.13 -170683288#0 -170683288#0.47 739678025#0 739678025#0.9 739678025#0.14 739678024#0 739678024#0.21 739678024#0.22 912599280 337818332#0 337818332#0.7 337818332#0.70 -19000995#2 -19000995#2.7 -19000995#2.29 -6349133#3 40416130#1 -6353867#0 170683665#8 6353172#0 40416130#3 40416130#3.42 40416130#3.45 -243352868#1 -243352868#1.19 170683665#13 -6369950#2 -6369950#2.24 -6369950#0 -336908262#6 -336908262#5 -336908262#5.80 -160624558#4 -160624558#4.98 805658294#8 805658294#9 805658294#9.71 808266757#0 808266757#0.7 -352434874#3 -243349945#19 -243349945#18 -243349945#17 -243349945#16 -243349945#16.50 6472289#3 6472289#4 6349133#0 -6463035#9 -6463035#9.48 -6463035#7 -6356676#0 -805680044#9 -805680044#9.50 -185485132#12 -185485132#12.125 805658294#0 805658294#0.38 805658294#0.52 -6494975#9 -6494975#9.13 -6494975#9.24 -243349945#10 -243349945#10.46 -185485132#10 243349944#17 243349944#17.50 -6494975#7 6447445#9 6447445#9.49 -22760521#2 -22760521#2.81 -22760521#2.121 428246847#0 428246847#0.8 428246847#0.22 6386110#0 6386110#0.16 6386110#0.25 6386110#0.55 -243349338#6 -243349338#6.14"/>
</vehicle>
<vehicle id = "veh10" type= "veh_passenger" depart="7210" >
<route edges =" -6522868 -6403883#7 -6403883#6 6345333 -6457203#14 -6457203#14.67 -6368504#2 -6368504#2.43 -6469837#4 -6469837#4.19 -158882511#8 -6403883#3 -158882517#4 160552467#9 160552467#10 160552467#10.81 160552467#10.91 160552467#10.102 160552467#11 160552467#11.10 160552467#11.22 160552467#11.49 160552467#11.58 160552467#11.67 160552467#11.76 160552467#11.83 160552467#11.93 160552467#11.104 160552467#11.114 160552467#11.125 -6323849#2 -6323849#1 -6323849#1.28 -6411908#6 -6411908#5 -6411908#5.12 -6411908#5.22 -6411908#5.31 -6411908#4 -158882517#2 -158882517#1 -158882517#0 -896104581#1 -896104581#1.6 -621283354 428098985#0 428098985#0.19 428314460 428314467 428314467.7 428098986 428098986.8 428098986.12 6470834 6470834.1 6470834.5 6470834.9 -8071894#4 -752851600#14 -752851600#14.33 -6346308#9 -6346308#9.33 -6346308#9.41 -6346308#6 -6374789#12 -6374789#12.53 -6374789#10 -6374789#10.121 -6464391#8 -6464391#8.3 -6464391#8.64 -6358524#5 -6358524#5.5 -6358524#5.96 -6358524#2 -6358524#2.6 -6358524#2.122 -742713664#1 -742713664#1.7 -742713664#1.9 -742713664#1.19 -6358498#1 -6358498#1.87 6474762#3 6474762#3.35 6474762#3.38 6474762#3.42 6474762#3.46 6474762#3.49 6474762#3.54 95600805#0 95600805#0.117 6384942#0 6384942#0.11 752851600#0 752851600#0.51 752851600#0.59 752851600#0.98 752851600#0.99 752851600#0.101 171739214#3 171739214#3.6 171739214#3.44 171739214#3.60 171739214#3.83 -428246432#1 -428246432#1.7 -428246433 -428246433.8 -428246435#1 -428246435#1.16 623536799#0 623536799#0.9 623536799#0.30 623536799#0.39 623536799#0.58 623536799#0.61 623536799#0.92 337668911#0 337668911#0.7 337668911#0.37 337668911#0.90 -171739214#9 8071890#0 8071890#0.56 158882505#0 158882505#0.42 158882505#2 158882505#3 -6411908#2 -6411908#2.56 171739214#14 160552467#6 160552467#6.15 160552467#6.20 160552467#6.50 158882505#6 158882505#7 6469837#2 158882517#6 158882517#6.46 158882517#6.66 158882517#6.67 158882517#6.69 158882517#6.71 158882517#6.73 8111708#0 8111708#0.2 8111708#0.5 8111708#0.7 8111708#0.9 8111708#0.12 8111708#0.14 8111708#0.45 8111708#0.50 -6505136#13 -6505136#13.115 8111709#2 8111709#2.49 6464042#8 6464042#8.123 37657905#0 37657905#0.5 37657905#0.47 -6513783#6 -6513783#5 6384359#8 6384359#9 6384359#9.26 -6381494#3 -6381494#3.43 6463017#6 6463017#6.48 6386837#1 6386837#2 6384359#12 6384359#12.14 6384359#12.24 6384359#12.93 -6444677 -292812445#12 -292812445#12.49 337739268 337739268.124 337739267#0 337818462 337818462.3 337818462.6 337739271#1 337739271#1.6 337739269#0 337739269#1 337739269#1.30 -801995081#6 -801995081#6.9 243349944#9 243349944#10 243349944#10.7 243349944#10.84 243349944#13 243349944#13.47 243349944#13.51 -22917113#5 -6447445#4 -6447445#4.47 -6360256#5 -396055524#1 -396055524#1.29 -396055524#1.40 -396055524#1.64 -396055524#1.86 460419028#0 460419028#0.11 460419028#0.49 460419028#0.79 460419028#0.95 460419028#3 6464126#6 -6360256#1 -6360256#1.102 243339793#6 243339793#6.50 243339793#6.74 -22917112 481291012#0 481291012#0.24 481291012#0.32 -185485132#1 -185485132#1.196 926425191#0 926425191#0.5 -6494970#6 -6494970#6.6 -185485127#1 -6523501#4 -6523501#4.175 -6523501#2 -6523501#2.5 -6523501#2.101 -460421482#2 -460421482#2.6 -460421482#2.70 6449462#0 6449462#0.9 6449462#0.46 6415147#2 6415147#3 6415147#4 6415147#5 -6489809#1 -6489809#1.47 256996977#4 256996977#4.22 256996977#4.24 256996977#4.38 6472293#0 6472293#0.6 6472293#0.29 6472293#2 6472293#3 6472293#4 6472293#4.162 -8071924#3 -8071924#3.39 -8071924#3.51 -8071924#0 -8071924#0.15 -481291012#7 -481291012#7.22 -481291012#6 -481291012#6.8 6494975#0 6494975#0.105 243339793#13 243339793#13.49 -6386110#4 -6386110#4.86 6464126#15 6464126#15.47 795671505#2 243349338#8 -6501822#12 6464130#0 6464130#0.42 6464130#2 6464130#2.44 -6449970#10 6336174#4 6336174#5 -243349331#0 -243349331#0.131 -6348024#4 -6425683#1 6506505#3 -259277920#1 6449970#8 -359671040#1 -359671040#1.39 -6441276#1 -6441276#1.40 -6501822#7 8071924#5 -6396312#4 -6396312#4.43 -6396312#2 -6396312#1 -185485127#10 -6501822#2 -6501822#1 -6501822#0 -6501822#0.165 6354836#0 6354836#0.6 6354836#1 6354836#1.40 6354836#3 -256997441#7 -256997441#7.46 6351349#5 661086629#0 -6371720#6 -185483738#0 -6414318#4 -157167355#0"/>
</vehicle>
<vehicle id = "veh11" type= "veh_passenger" depart="7210" >
<route edges =" -813722269#3 -813722269#3.7 -813722269#3.48 -813722269#3.84 -813722269#3.86 569505974#0 569505974#0.10 569505974#0.37 816616073#0 816616073#0.78 813722270#0 813722270#0.7 813722270#0.42 813722270#0.74 813722270#0.75 813722270#0.121 813722270#5 813722270#5.7 813722270#5.118 171739207#0 171739207#0.49 171739207#2 171739207#2.46 171739207#4 171739207#4.40 171739207#4.43 171739207#4.47 171739207#4.50 171739207#4.52 171739207#4.54 171739207#4.77 171739207#4.80 171739207#4.82 171739207#4.85 171739207#4.87 171739207#4.90 171739207#4.113 8071898#0 8071898#0.8 8071898#0.10 8071898#0.26 8071898#0.40 6430729#11 6430729#11.51 -65588093#2 -65588093#1 -65588093#1.103 -65588093#1.123 -65588093#1.126 -65588093#1.130 739843348#0 739843348#0.4 739843348#0.9 -460423532#1 -460423532#1.17 -22917111#30 -22917111#30.9 -22917111#30.50 -22917111#30.96 8071900#4 8071900#4.7 8071900#4.49 8071900#4.88 8071900#8 8071900#8.6 8071900#8.7 8071900#8.49 8071900#8.53 -525497324#0 -6512920#11 -6512920#11.12 -6512920#11.49 -6512920#11.62 -6512920#11.76 -6512920#11.147 -293775902#11 -293775902#11.6 -293775902#11.48 -293775902#11.91 -293775902#7 -293775902#7.10 -293775902#7.49 -293775902#7.92 -293775902#3 -293775902#3.10 -293775902#3.48 -293775902#3.93 -893866065#10 -893866065#10.7 -893866065#10.49 -893866065#10.90 -893866065#6 -893866065#6.9 -893866065#6.49 -893866065#6.91 -243338979#25 -243338979#25.8 -243338979#25.64 -243338979#25.77 -243338979#25.120 -243338979#20 -243338979#20.7 -243338979#20.121 353690157#0 353690157#0.5 353690157#0.19 353690157#0.47 353690157#0.72 353690157#0.87 -353690147#3 -353690147#3.7 -353690147#3.110 -353690147#3.122 353690152#0 353690152#0.9 353690152#0.90 460419029#0 460419029#0.7 460419029#0.51 460419029#0.53 460419029#0.89 -22917111#10 -22917111#10.9 -22917111#10.32 -22917111#10.71 -22917111#10.74 -22917111#10.76 -22917111#10.93 -22917111#10.155 -22917111#10.196 353690160#3 353690160#3.6 353690160#3.90 179552384#0 179552384#0.7 179552384#0.28 179552384#0.44 179552384#0.49 179552384#0.89 901419468#0 901419468#0.8 901419468#0.10 901419468#0.19 901419468#0.42 901419468#0.73 901419468#0.154 486874837#0 486874837#1 486874837#2 486874837#2.47 460419013#0 460419013#0.51 -6380913#14 -6380913#13 -6380913#12 -6380913#11 -6380913#11.53 -6380913#7 -6380913#7.22 -6467507#7 -6467507#7.46 -6467507#5 -6467507#5.50 -6447971#5 -6507809#3 -6507809#2 -6507809#2.9 -6507809#2.91 -901474739#9 -901474739#9.9 -901474739#9.83 6440364#7 6440364#7.7 6440364#7.83 -876005346#6 -876005346#6.6 -876005346#6.69 -22917110#5 -22917110#5.7 -22917110#5.84 -901474739#2 -901474739#2.10 -901474739#2.115 -893868550#2 -893868550#2.7 -893868550#2.86 901477545#0 901477545#0.8 901477545#0.89 901477545#4 901477545#4.7 901477545#4.69 -6440364#3 -6440364#3.8 -6440364#3.13 -6440364#3.85 -6440364#3.103 256996974#6 256996974#6.9 256996974#6.21 256996974#6.40 256996974#6.89 256996974#11 256996974#11.6 256996974#11.33 256996974#11.65 256996972 256996972.16 256996972.70 256996978#0 256996978#0.7 256996978#0.68 256996973#0 256996973#0.33 256996973#0.45 256996973#0.49 6385341#0 6385341#0.19 6385341#0.20 6385341#0.34 6385341#0.47 6385341#0.50 6385341#0.54 6385341#0.58 6385341#0.73 6385341#0.78 6385341#0.81 6385341#0.84 6385341#0.87 6385341#0.126 6385341#0.138 6384260#2 6384260#3 6384260#3.54 -6487445#4 -6487445#4.15 -6487445#4.55 6415147#0 6415147#0.61 6449462#3 6449462#3.7 6449462#3.50 6449462#3.60 6449462#3.72 6449462#3.87 795669782#0 795669782#0.54 -6414318#0 -6414318#0.76 -6414318#0.81 460418987#0 460418987#0.4 460418987#0.8 -6414273#1 -6414273#1.22 -460418992#4 -460418992#4.6 -460418992#4.125 -460418992#2 -460418992#2.50 -460418992#2.92 -337742188#11 -337742188#11.8 -337742188#11.28 -337742188#11.102 22917670#3 22917670#3.7 22917670#3.35 22917670#3.71 22917667#3 22917667#3.6 22917673#5 22917673#5.15 22917673#5.76 481291011#0 481291011#0.6 481291011#0.65 481291010#0 481291010#0.19 481291010#0.23 481291010#0.30 481291010#0.133 481291010#3 481291010#3.6 481291010#3.100 -6497081#10 -6497081#10.7 6371720#3 157167355#0"/>
</vehicle>
<vehicle id = "veh12" type= "veh_passenger" depart="10815" >
<route edges =" -813722269#3 -813722269#3.7 -813722269#3.48 -813722269#3.84 -813722269#3.86 569505974#0 569505974#0.10 569505974#0.37 816616073#0 816616073#0.78 6343949#3 6343949#3.9 6343949#3.49 620762212#3 -6430729#5 -6430729#5.49 -6430729#5.89 813722270#5 813722270#5.7 813722270#5.118 171739207#0 171739207#0.49 160552467#0 160552467#1 160552467#1.43 160552467#1.66 160552467#1.99 160552467#1.104 160552467#1.111 -171739214#14 -171739214#13 6346524#0 -158882505#2 -6368665#1 -6368665#1.49 -6368665#1.91 -6368665#1.93 171739214#11 -6346526#5 -6346526#5.121 -337668916#3 -337668916#3.10 -337668916#3.49 -337668916#3.92 337668911#0 337668911#0.7 337668911#0.37 337668911#0.90 -171739214#9 8071890#0 8071890#0.56 -158882558 158882517#0 158882517#1 6346524#2 158882511#3 158882511#4 158882511#5 158882511#5.46 158882511#5.58 6403883#4 6368504#0 6368504#1 6368504#1.33 -6457203#13 -6457203#13.26 -6457203#11 -6457203#11.20 -6457203#11.36 -6457203#11.44 -6457203#11.89 -6457203#11.100 -6457203#7 -6457203#7.15 -6457203#7.37 -6457203#7.51 -6457203#7.77 -6457203#7.91 -6457203#3 -6457203#3.34 -6457203#3.51 -6457203#3.73 -6457203#3.81 -6457203#0 -8071899 -337668916#11 -337668916#11.23 -337668916#11.39 -337668916#10 -6403874#0 -65588100#6 -65588100#6.7 6430729#9 6430729#9.48 8071898#2 6343949#8 6343949#8.52 6343949#10 6343949#10.49 6440348#11 6440348#11.4 6440348#11.7 6440348#11.62 6440348#11.73 6440348#14 292812445#5 292812445#5.45 -525497324#8 -525497324#7 -525497324#7.39 -525497324#7.54 -525497324#7.112 -525497324#3 -525497324#2 243349944#4 243349944#4.53 243349944#6 481291488#5 481291488#5.46 481291488#5.56 481291488#5.102 481291488#5.127 481291488#5.144 337739271#0 337739271#0.10 337739271#0.13 337739271#1 337739271#1.6 337739269#0 -460419011#4 243349944#8 801995081#6 801995081#6.192 481291013#0 481291013#0.16 481291013#0.30 481291013#0.70 481291013#0.75 481291013#0.79 481291013#0.109 481291013#0.113 737709039#0 737709039#0.8 737709039#0.14 737709039#2 737709039#2.53 737709039#2.59 338701493#0 338701493#0.9 -92170540#0 -92170540#0.2 169730574#0 169730574#0.11 169730574#0.29 169730574#0.31 854082601 854082601.11 854082601.52 -6486416#2 -6486416#2.9 -6486416#2.116 805680044#1 805680044#1.7 805680044#1.49 805680044#1.91 -22917113#10 -22917113#10.7 -22917113#10.129 -22917113#10.132 -361784407#3 -361784407#3.43 -361784407#3.58 -361784407#3.88 -6360256#13 -6360256#13.8 -6360256#13.10 -6360256#13.19 -6360256#13.61 -6360256#13.76 -6360256#13.125 243349945#3 243349945#3.5 243349945#3.45 243349945#3.49 243349945#6 243349945#6.48 243349945#6.88 243349945#9 243349945#9.50 243349945#11 243349945#11.47 -243349942#0 -243349942#0.28 -22760521#3 -22760521#2 -22760521#2.81 -22760521#2.121 428246847#0 428246847#0.8 428246847#0.22 6386110#0 6386110#0.16 6386110#0.25 6386110#0.55 -243349338#6 -243349338#6.14"/>
</vehicle>
<vehicle id = "veh13" type= "veh_passenger" depart="10815" >
<route edges =" -816616074#1 -816616074#1.10 -816616074#1.14 -816616074#1.119 428341734#4 428341734#4.8 428246439#0 428246439#0.14 569505976#0 569505976#0.10 569505976#0.14 569505976#0.41 569505976#0.120 620762213#0 620762213#0.9 620762213#0.88 57883609#0 57883609#0.6 57883609#0.57 57883609#3 57883609#3.43 57883609#3.52 57883609#3.60 57883609#3.80 620762214 -349901822#3 -349901822#3.58 96029553#0 96029553#0.9 96029553#0.15 96029553#0.59 -893866066#2 -893866066#2.7 -893866066#2.122 -353690150#2 -353690150#2.8 -353690150#2.144 -893866064#2 -893866064#2.7 -893866064#2.122 6464138#0 6464138#0.7 6464138#0.53 6464138#0.92 6464138#4 6464138#4.6 6464138#4.51 6464138#4.88 6464138#8 6464138#8.7 6464138#8.49 6464138#8.88 -6512920#5 -6512920#5.6 -6512920#5.9 -6512920#5.119 -6512920#5.124 -6512920#3 -6512920#3.8 -6512920#3.9 -6512920#3.19 -6512920#3.59 -6512920#3.92 486874837#0 6481166#9 6481166#9.121 353690154#15 353690154#15.50 243339793#0 243339793#0.48 243339793#2 243339793#2.49 243339793#4 460419028#5 460419028#5.67 460419028#5.79 460419028#5.105 353690153#0 353690153#0.8 353690153#0.25 353690153#0.87 486875123#0 486875123#0.56 486875123#0.88 22917112 22917113#0 22917113#0.56 6464126#9 6464126#9.46 185485132#4 243349338#3 243349338#3.49 243349338#5"/>
</vehicle>
<vehicle id = "veh14" type= "veh_passenger" depart="10815" >
<route edges =" 817434294 817434294.10 817434294.36 817434294.44 817434294.63 817434294.119 816616072#4 816616072#4.7 816616072#4.62 816616072#4.121 6430729#0 6430729#0.7 6430729#0.86 6430729#3 6430729#3.9 6430729#3.48 -620762212#3 6343949#6 -65588100#1 -65588100#1.65 -826314455#3 -826314455#3.64 -826314455#3.71 -826314455#3.76 -826314455#3.90 -826314455#3.118 -349901821 -826314456#4 -826314456#4.12 -826314456#4.19 -826314456#4.65 -826314456#4.106 -337673339 -337673337 185882764 185882764.13 185882764.14 185882765 185882765.16 185882765.26 185882765.30 185882765.31 395933841 164418944#0 164418944#0.13 164418944#0.18 164418944#0.32 164418944#0.39 -353690148#9 -353690148#9.7 -353690148#9.10 -353690148#9.12 -353690148#9.13 -353690148#9.38 -353690148#9.143 -353690148#6 -353690148#6.8 -353690148#6.122 -353690148#3 -353690148#3.7 -353690148#3.59 -353690148#3.121 -353690147#3 -353690147#3.7 -353690147#3.110 -353690147#3.122 -486864438#4 -486864438#4.7 -486864438#4.89 -243338979#12 -243338979#12.10 -243338979#12.11 -243338979#12.62 -243338979#9 -243338979#9.5 -243338979#9.31 6494871#0 6494871#0.10 6494871#0.90 -436480245#0 -436480245#0.21 -436480245#0.32 -436480245#0.59 -353690159#8 -353690159#8.13 -353690159#8.23 -353690159#8.30 -353690159#8.49 -353690159#8.93 -6343878#11 -6343878#11.8 -6343878#11.104 6463530#10 6463530#10.5 6463530#10.49 6463530#10.87 6435230#8 6376376#0 6376376#0.9 6376376#0.35 6376376#0.88 6376376#0.97 6376376#4 6376376#4.5 6376376#4.86 6476327#12 6476327#12.5 6476327#12.32 6476327#12.60 486844942#4 486844942#4.7 486844942#4.31 486844942#4.73 486844942#4.89 353690160#0 353690160#0.6 353690160#0.88 353690160#3 353690160#3.6 353690160#3.90 -876005345#4 -876005345#4.10 -876005345#4.11 -876005345#4.20 -876005345#4.33 -876005345#4.199 901474741#0 901474741#0.6 901474741#0.85 901474741#0.87 -901474742#2 -901474742#2.5 -901474742#2.43 -901474742#2.83 6507809#0 6507809#0.7 6507809#0.88 6507809#3 6507809#4 6507809#5 6507809#5.51 -6380913#4 169917351#9 169917351#9.48 169917351#9.87 -6516509#14 -6516509#14.5 -6516509#14.58 -6516509#14.86 6507809#10 6507809#10.8 6507809#10.91 6507809#13 6507809#13.9 6507809#13.77 -6452520#5 -6452520#5.4 -6452520#5.85 169917351#19 169917351#19.6 169917351#19.71 6523501#3 6523501#3.6 185485127#1 6494970#5 6494970#5.205 926425191#2 926425191#3 926425191#4 926425191#4.20 6472293#4 6472293#4.162 8071924#4 -6501822#6 -6501822#6.44 -6501822#4 6463541#0 6396312#2 185485117#3 -6449970#4 -6449970#3 -6449970#2 -185485127#11 -185485127#10 -185485127#9 -185485127#9.41 -185485127#9.47 -185485127#6 -185485127#5 -185485127#5.56 336908264#2 336908264#2.29 -169917351#27 -169917351#27.11 -169917351#27.76 -6494970#2 -6494970#2.4 -6494970#2.100 6358721#0 6358721#0.9 -6415147#3 6497081#2 6497081#2.38 6497081#2.47 6497081#2.53 6497081#2.60 6497081#2.67 6497081#2.70 6497081#2.74 6497081#2.81 6497081#2.120 6497081#6 6497081#6.44 6497081#8 6371720#3 157167355#0"/>
</vehicle>
<vehicle id = "veh15" type= "veh_passenger" depart="10815" >
<route edges =" -814326475#2 -814326475#2.9 -814326475#2.24 -814326475#2.41 -814326475#2.70 -814326475#2.91 -6456052#5 -6456052#5.10 -6456052#5.36 -6456052#5.120 -6456052#1 -6456052#1.10 -6456052#1.62 -607691082#1 6501701#2 6501701#2.50 6501701#2.60 -6475815#4 -6475815#3 -6475815#3.2 -6475815#3.17 -6475815#3.46 -428089348#3 -428089348#3.15 -428089348#3.21 -428089348#3.28 -428341218#2 -428341218#2.3 -428341218#2.9 -65588069#1 -65588069#1.13 -428089351#1 -428089351#1.16 -293753570#2 -293753570#2.9 -293753570#2.83 -369877031#7 -369877031#7.10 -369877031#7.98 -369877031#7.191 -749622503#8 -749622503#8.7 -749622503#8.63 -749622503#8.83 -749622503#4 -749622503#4.84 -749622503#2 -749622503#2.9 -749622503#2.29 -749622503#2.64 -749622503#2.84 532166310#0 532166310#0.43 532166310#0.52 -428088883#1 -428088883#1.15 -428088897 -428088888 -737711647 -332223490#1 -332223490#1.19 -428088887#1 -428088887#1.12 -428088892 -428088886#1 -428088886#1.24 -428088886#1.35 -428088886#1.45 -65588108#1 -65588108#1.18 -65588108#1.53 -332223489#3 -332223489#3.4 -332223489#3.15 -332223489#3.17 -332223489#3.21 -401497115 -401497115.113 -401497115.170 -401497115.214 -428233435 -460425668 -460425668.5 -6457806#2 -6457806#2.21 -6457806#2.25 -6457806#2.30 6476922#0 6476922#0.13 6476922#0.24 6476922#0.37 6476922#0.60 6476922#0.67 6413383#0 6413383#0.1 6413383#0.3 6413383#0.6 6413383#0.18 6413383#0.26 6413383#0.47 428233432#0 428233432#0.11 428233432#0.22 -739874554#2 -739874554#2.15 -739874554#2.40 -739874554#2.60 -739874554#2.67 622519661 622519661.8 739874553#0 739874553#0.66 739874553#0.80 739874553#0.88 333370569#0 333370569#0.6 333370569#0.13 333370569#0.37 333370569#0.43 333370569#0.66 333370569#0.94 333370569#0.155 333370569#0.178 333370566#0 333370566#0.32 6405076#0 6405076#0.10 6405076#0.18 6405076#0.21 6405076#0.58 6405076#0.79 6405076#0.81 6405076#3 6405076#3.4 6405076#3.8 6405076#3.14 6405076#3.20 6405076#3.50 6405076#3.68 6405076#3.84 22917663#0 22917663#0.5 22917663#0.8 22917663#0.11 22917663#0.26 22917663#0.59 22917663#0.67 22917663#0.85 -6458014#2 -6458014#2.7 -6458014#2.83 32135545#0 32135545#0.9 32135545#0.63 32135545#0.103 -893868551#2 -893868551#2.8 -893868551#2.91 6476327#4 6476327#4.7 6476327#4.35 6476327#4.86 6476327#8 6476327#8.6 6476327#8.84 893868547#0 893868547#0.8 893868547#0.91 -893868548#2 -893868548#2.7 -893868548#2.85 901474739#0 901474739#0.7 901474739#0.111 901474739#3 901474739#3.6 901474739#3.41 901474739#3.71 -6440364#6 -6440364#6.6 -6440364#6.86 -6440364#3 -6440364#3.8 -6440364#3.13 -6440364#3.85 -6440364#3.103 6465130#0 6465130#0.8 6465130#0.84 22917663#15 22917663#15.9 22917663#15.45 22917663#15.80 243338978#4 243338978#4.8 243338978#4.84 243338978#7 243338978#7.8 243338978#7.38 243338978#7.45 243338978#7.74 965874292#0 965874292#0.8 965874292#0.88 965874292#3 965874292#3.1 965874292#3.48 965874292#3.59 965874292#3.86 965874292#7 965874292#7.8 965874292#7.41 965874292#10 965874292#10.35 965874292#12 965874292#12.8 965874292#12.69 158123767#0 158123767#0.10 158123767#0.11 158123767#0.50 158123767#0.74 158123767#0.86 158123767#0.115 158123767#0.122 158123767#0.134 158123767#0.139 158123767#0.166 795669782#0 795669782#0.54 6414318#1 6414318#1.86 6414318#3 -157167355#0"/>
</vehicle>
<vehicle id = "veh16" type= "veh_passenger" depart="14420" >
<route edges =" -813722269#3 -813722269#3.7 -813722269#3.48 -813722269#3.84 -813722269#3.86 620762213#0 620762213#0.9 620762213#0.88 57883609#0 57883609#0.6 57883609#0.57 57883609#3 57883609#3.43 57883609#3.52 57883609#3.60 57883609#3.80 179551719 179551719.37 179551719.46 179551719.51 179551719.88 179551719.93 179551719.97 739843348#0 739843348#0.4 739843348#0.9 620762218#0 620762218#0.55 620762218#0.66 620762218#0.68 620762218#0.81 -6440348#7 -6440348#7.9 243349944#0 243349944#0.4 243349944#0.20 243349944#0.49 243349944#4 243349944#4.53 243349944#6 243349944#7 243349944#8 -801995081#5 -801995081#5.197 -801995081#5.209 256994206#0 256994206#0.8 256994206#0.43 256994206#0.60 396055524#0 396055524#0.9 396055524#0.30 396055524#0.54 396055524#0.65 256994205#0 256994205#0.67 256994205#1 256994205#2 256994205#2.24 256994205#2.72 256994205#3 428246847#0 428246847#0.8 428246847#0.22 6386110#0 6386110#0.16 6386110#0.25 6386110#0.55 -243349338#6 -243349338#6.14"/>
</vehicle>
<vehicle id = "veh17" type= "veh_passenger" depart="14420" >
<route edges =" -816616074#1 -816616074#1.10 -816616074#1.14 -816616074#1.119 428341734#4 428341734#4.8 428246439#0 428246439#0.14 428246438#0 428246438#0.8 428246440#0 428246440#0.62 800744529#0 800744529#0.7 800744529#0.52 800744529#0.89 -349901821 -6476313#2 -6476313#2.11 -6476313#2.29 -6476313#2.98 -6476313#2.99 -6476313#2.103 -6476313#2.107 -353690148#9 -353690148#9.7 -353690148#9.10 -353690148#9.12 -353690148#9.13 -353690148#9.38 -353690148#9.143 893866065#7 893866065#7.7 893866065#7.48 893866065#7.90 293775902#0 293775902#0.7 293775902#0.52 293775902#0.90 293775902#4 293775902#4.6 293775902#4.49 293775902#4.88 -6440371#8 -6440371#8.7 -6440371#8.122 -6440371#8.124 -6440371#8.125 6464138#8 6464138#8.7 6464138#8.49 6464138#8.88 6512920#6 6512920#6.5 6512920#6.7 6512920#6.126 293775902#12 293775902#12.3 293775902#12.50 6481166#12 525497323#2 525497323#2.81 40416132#0 40416132#0.19 -460419011#2 6464126#3 6464126#3.49 6464126#5 -460419028#3 243349338#0 243349338#0.18 243349338#1 243349338#2 -185485132#4 -185485132#3 -185485132#3.101 -243339793#10 -243339793#10.50 -22917112 481291012#0 481291012#0.24 481291012#0.32 481291012#2 481291012#2.49 6494975#0 6494975#0.105 6494975#1 6494975#1.9 6494975#2 243349338#5"/>
</vehicle>
<vehicle id = "veh18" type= "veh_passenger" depart="14420" >
<route edges =" 817434294 817434294.10 817434294.36 817434294.44 817434294.63 817434294.119 816616072#4 816616072#4.7 816616072#4.62 816616072#4.121 816616072#8 816616072#8.6 816616072#8.121 158882495#0 158882495#0.6 6411908#0 6411908#1 6411908#1.103 6411908#1.111 6411908#2 6411908#2.39 -158882505#3 6346524#1 158882517#2 6411908#4 158882511#4 -160552467#9 158882517#4 -6403883#2 -6403883#1 -6403874#2 -6403874#2.90 -6403874#0 -171739207#3 -171739207#3.48 -620762212#5 -620762212#5.7 -620762212#3 -620762212#2 -620762212#2.76 -620762212#2.120 -800744530#5 -800744530#5.9 -800744530#5.19 -800744530#5.73 -800744530#5.84 -800744530#5.118 -428246440#1 -428246440#1.7 -428246438#1 -428246438#1.17 -569505978#1 -569505978#1.10 -569505979 -569505979.32 -569505979.79 -395714916#1 -395714916#1.12 -568043367 -568043367.41 -568043367.79 893866065#0 893866065#0.10 893866065#0.66 893866065#0.92 -243338979#25 -243338979#25.8 -243338979#25.64 -243338979#25.77 -243338979#25.120 893866060#4 893866060#4.6 893866060#4.48 893866060#4.89 893866060#8 893866060#8.7 893866060#8.65 893866060#8.89 6464138#0 6464138#0.7 6464138#0.53 6464138#0.92 6464138#4 6464138#4.6 6464138#4.51 6464138#4.88 -6440371#5 -6440371#5.4 -6440371#5.6 -6440371#5.7 -6440371#5.119 -6440371#5.121 353690154#8 353690154#8.7 353690154#8.42 353690154#8.50 353690154#8.92 353690154#12 353690154#12.6 353690154#12.32 353690154#15 353690154#15.50 -6447971#10 -6447971#10.11 -6447971#9 6425689#0 6425689#0.48 6425689#2 6425689#2.48 6380913#14 481291014#0 481291014#0.53 460419024#0 460419024#0.9 460419024#0.19 460419024#0.34 460419024#0.53 460419024#0.102 460419024#5 460419024#5.50 460419024#5.63 460419024#5.69 6516509#0 6516509#0.7 6516509#0.30 6516509#0.46 6516509#0.66 6516509#0.90 6516509#0.105 6516509#0.109 -6463536#1 -6463536#1.10 -6463536#1.11 -6463536#1.22 -6463536#1.32 -6463536#1.39 -6463536#1.43 -6463536#1.50 -6463536#1.60 -6463536#1.69 -6463532#3 -6463532#3.45 -6515975#7 -6515975#6 6507809#5 6507809#5.51 -6380913#4 169917351#9 169917351#9.48 169917351#9.87 169917351#12 169917351#12.9 169917351#12.42 169917351#12.90 169917351#16 169917351#16.9 169917351#16.77 169917351#19 169917351#19.6 169917351#19.71 -6523501#2 -6523501#2.5 -6523501#2.101 6497081#0 6497081#0.8 6415147#3 6415147#4 -428247193#2 -428247193#2.56 -428247193#2.61 -428247193#2.96 -428247193#2.117 -428247193#2.121 -428247193#2.140 -428247193#2.154 -428247195 -428247195.5 -460421481#2 -460421481#2.8 -460421481#2.32 6497081#6 6497081#6.44 6497081#8 -6371720#2 -6371720#1 -6371720#1.81 460418987#2 -6371704#2 -6371704#2.42 -460418992#2 -460418992#2.50 -460418992#2.92 460418994#0 460418994#0.9 460418994#0.44 460418994#0.71 22917667#0 22917667#0.7 22917667#0.103 22917670#7 22917670#7.7 22917670#7.71 -795846818#4 -795846818#4.7 -795846818#4.95 -795846818#4.102 460418978#3 460418978#3.9 460418978#3.49 369455641#1 369455641#1.28 369455641#1.78 512126021#0 512126021#0.7 512126021#0.31 512126021#0.66 157167355#0"/>
</vehicle>
<vehicle id = "veh19" type= "veh_passenger" depart="14420" >
<route edges =" -814326475#2 -814326475#2.9 -814326475#2.24 -814326475#2.41 -814326475#2.70 -814326475#2.91 -723013181#2 -723013181#2.9 -723013181#2.18 -723013181#2.38 -723013181#0 -332601014#3 -332601014#3.31 -332601014#3.36 -332601014#3.42 -428246436#1 -428246436#1.13 -428246436#1.22 -428246436#1.37 -808907363#3 -808907363#3.25 -808907363#3.35 -808907363#3.48 -808907363#3.53 -808907363#3.61 -6447455#5 -6447455#5.3 -6447455#5.8 -6447455#5.47 158612542#6 158612542#6.7 158612542#6.50 158612542#6.74 -6415868#5 -6461453#5 -6461453#5.36 -6461453#5.50 -6461453#5.66 -6461453#5.116 -723052304#2 -723052304#2.8 6349123#3 6349123#3.10 6349123#3.63 6349123#3.77 6349123#7 6349123#8 6430733#5 6430733#5.62 6430737#0 6430737#0.47 6430737#0.73 158612542#13 158612542#13.18 158612542#13.36 -6474762#4 -6474762#4.45 -6474762#4.49 -6474762#4.53 -6474762#4.56 -6474762#4.60 -6474762#4.64 6358498#0 6358498#0.53 742713664#0 742713664#0.9 742713664#0.19 742713664#0.21 548654006#0 548654006#0.8 548654006#0.16 548654006#0.24 548654006#0.54 331930455#0 331930455#0.9 331930455#0.42 331930455#0.49 331930455#0.60 331930455#0.86 428246435#0 428246435#0.10 428246433 428246433.72 428246432#0 428246432#0.13 171739214#8 8071890#0 8071890#0.56 621283351#0 621283351#0.54 621283351#0.62 428098980#0 428098980#0.10 428098983 428098983.4 428314458 428314461 428098979#0 428098979#0.14 -6414229#15 -6414229#15.10 -6414229#15.45 -6414229#12 6358524#9 6358524#9.62 6358524#9.78 6358524#12 8071894#2 8071894#3 8071894#4 462701467#0 462701467#0.142 462701468 462701468.31 462701468.57 6523130 337099385#1 -6428544#6 -6428544#5 -6428544#4 -6428544#3 -6428544#3.82 -6428544#1 -6348400#1 -6348400#1.20 -6348400#1.22 -6348400#1.27 215404534#2 -6358515#1 -6358515#0 -8071894#0 -6374789#13 -6346308#5 -6346308#5.48 749754758#10 -6368518#3 -6368518#3.49 6366765#4 6366765#5 6366765#5.118 6414229#4 6414229#4.5 6414229#4.47 6414229#4.88 -749754758#7 -749754758#7.3 -749754758#7.122 6464391#13 6464391#13.8 6464391#13.49 6464391#13.91 6366765#10 6366765#10.4 6366765#10.120 6384350#4 6384350#4.8 6384350#4.48 6384350#4.87 6384350#8 6384350#8.4 6384350#8.47 6384350#8.86 -6374789#5 -6374789#5.9 -6374789#5.118 -749754754#0 -749754754#0.11 -749754755 -749754755.11 -749754755.23 -749754755.34 -749754755.44 -749754755.57 -749754755.70 -749754755.72 -749754755.82 -749754755.92 -749754755.102 -621088608#1 -621088608#1.7 -621088608#1.12 -393047810#1 -393047810#1.14 -393047810#1.66 -393047810#1.75 -436163947#2 -436163947#2.10 -436163947#2.77 -256993082#5 -256993082#5.11 -256993082#3 -256993082#3.4 -256993082#3.32 -256993082#3.38 -508340468#5 -508340468#5.10 -508340468#5.76 -508340468#2 -508340468#2.20 -508340468#2.58 -460423539#2 -460423539#2.8 -460423539#2.47 -460423539#2.71 65588116#0 65588116#0.12 6343952#0 6343952#0.45 -6511393#7 -6511393#6 -6511393#6.32 -6511393#6.48 -6511393#6.81 -6511393#6.115 -6511393#1 -6511393#1.119 912290518#10 912290518#10.51 912290518#10.92 912290518#10.93 912290518#10.95 912290518#10.98 -749622503#30 -749622503#30.5 -749622503#30.9 -749622503#30.79 -749622503#30.85 -749622503#30.120 -6462029#9 -6462029#9.9 -6462029#9.87 532416982#0 532416982#0.9 428231024#0 428231024#0.38 -759056694#16 -759056694#16.8 -759056694#16.23 -759056694#16.28 -759056694#16.42 -759056694#16.60 -759056694#16.85 -749622503#22 -749622503#22.9 -749622503#22.51 -749622503#22.84 22927969#3 22927969#3.7 22927969#3.49 22927969#3.90 22927969#7 22927969#7.7 22927969#7.47 22927969#7.88 293753570#6 293753570#6.10 293753570#6.38 293753570#6.84 293753570#6.86 -759056694#2 -759056694#2.7 -759056694#2.25 -759056694#2.48 -738637224 -738637224.5 -738637224.9 -738637224.14 -738637224.23 -738637224.30 -165042063#1 -165042063#1.3 -165042063#1.13 -165042063#1.15 -759056491 -759056491.4 -759056491.8 -759056491.13 -759056491.17 -759056491.21 -759056491.26 -759056491.41 -759056491.81 -759056491.83 -759056491.88 -337673342#5 -337673342#5.3 -337673342#5.9 -337673342#5.13 -337673342#5.21 -337673342#5.35 -337673342#5.72 -337673342#0 6343890#0 6343890#0.54 6343890#0.56 6343890#0.58 6343890#0.59 6343890#0.61 -6475815#6 -6475815#6.16 -6475815#4 -6475815#3 -6475815#3.2 -6475815#3.17 -6475815#3.46 -428089348#3 -428089348#3.15 -428089348#3.21 -428089348#3.28 -353690151#5 -353690151#5.11 -353690151#5.12 -353690151#5.26 -353690151#5.83 -353690151#5.102 -353690151#2 -353690151#2.9 -353690151#2.22 -353690151#2.24 -353690151#2.39 -353690151#2.72 -353690151#2.92 -433500388#1 -433500388#1.11 -433500388#1.46 -433500388#1.73 -433500388#1.113 -433500388#1.115 -428088900#1 -428088900#1.10 -428088894#1 -428088894#1.25 -428088883#1 -428088883#1.15 -428088897 -428088888 -737711647 -332223490#1 -332223490#1.19 -465971498#3 -465971498#3.2 -465971498#3.3 -465971498#3.5 -465971498#3.7 -465971498#3.10 -465971498#3.34 -465971498#3.84 369877037#0 369877037#0.9 369877037#0.83 537686684#0 537686684#0.43 537686684#0.53 -332223489#3 -332223489#3.4 -332223489#3.15 -332223489#3.17 -332223489#3.21 -401497115 -401497115.113 -401497115.170 -401497115.214 -428233435 -460425668 -460425668.5 425646007#0 425646007#0.10 425646007#0.17 425646007#0.20 425646007#0.22 425646007#0.27 -724644768 -724644768.35 6402586#0 6402586#0.1 6402586#0.4 6402586#0.6 6402586#0.12 6402586#0.35 6402586#0.59 6402586#4 6402586#4.72 6402586#4.75 6402586#4.77 6402586#4.80 208021560#0 208021560#0.2 208021560#0.5 208021560#0.8 208021560#0.11 208021560#0.30 208021560#0.39 208021560#0.44 208021560#0.106 208021560#0.125 208021560#0.133 208021560#0.136 347092914#0 347092914#0.10 347092914#0.14 347092914#0.24 347092914#0.54 347092914#0.75 347092914#0.87 332223488 332223488.25 332223488.48 332223488.65 332223488.68 332223488.88 347092907#0 347092907#0.3 347092907#0.13 347092907#0.19 347092907#0.26 347092907#0.31 347092907#0.38 347092907#0.40 347092907#0.45 347092907#0.51 332223494#0 332223494#0.18 332223494#0.35 332223494#0.144 332223494#0.171 22760519#0 22760519#0.7 22760519#0.27 22760519#3 22760519#3.9 22760519#3.21 22760519#3.33 22760519#3.91 965874293#0 965874293#0.9 965874293#0.40 965874293#2 965874293#2.45 760645197#0 760645197#0.6 760645197#0.45 760645197#0.84 -263712957#16 -263712957#16.8 -263712957#16.140 -263712957#16.187 -6506833#23 -6506833#23.7 -6506833#23.45 -6506833#23.84 -749863323#3 -749863323#3.10 -749863323#3.85 -749863323#3.126 792010743#0 792010743#0.26 792010743#0.59 792010743#2 792010743#2.11 792010743#2.16 573669451#0 573669451#0.28 573669451#0.63 573669451#0.78 573669451#0.83 862387686#0 862387686#0.13 862387686#0.22 -481291008#2 -481291008#2.2 -481291008#2.11 -481291008#2.24 6405732#0 6405732#0.8 6405732#0.12 6405732#0.162 6405732#0.169 6405732#3 6405732#3.8 6405732#3.58 6405732#3.206 332951498#3 332951498#3.7 332951498#3.9 332951498#3.41 332951498#3.77 6496658#0 6496658#0.30 6496658#0.31 -260318962#3 -260318962#3.5 -260318962#1 -260318962#1.73 -6388742#24 -6388742#24.5 -6388742#24.72 -6388742#21 -6388742#21.6 -6388742#21.71 -6388742#18 -6388742#18.5 -6388742#18.14 -6388742#18.22 -6388742#18.33 -6388742#18.42 -6388742#18.52 -6388742#18.64 -6388742#18.73 -6388742#15 -6388742#15.8 -6388742#15.46 -6388742#15.84 263712958#0 263712958#0.8 263712958#0.45 263712958#0.101 263712958#0.114 263712958#0.117 263712958#0.119 6445479#0 6445479#0.4 6445479#0.8 6445479#0.186 965874292#10 965874292#10.35 965874292#12 965874292#12.8 965874292#12.69 158123767#0 158123767#0.10 158123767#0.11 158123767#0.50 158123767#0.74 158123767#0.86 158123767#0.115 158123767#0.122 158123767#0.134 158123767#0.139 158123767#0.166 795669782#0 795669782#0.54 6414318#1 6414318#1.86 6414318#3 -157167355#0"/>
</vehicle>
<vehicle id = "veh20" type= "veh_passenger" depart="18025" >
<route edges =" -813722269#3 -813722269#3.7 -813722269#3.48 -813722269#3.84 -813722269#3.86 620762213#0 620762213#0.9 620762213#0.88 57883609#0 57883609#0.6 57883609#0.57 65588100#0 65588100#0.63 65588100#2 65588100#2.20 65588100#2.57 -6430729#8 -6430729#8.48 -6430729#8.49 620762212#4 620762212#4.122 160552467#0 337668916#8 337668916#8.47 337668916#10 6463027#0 6463027#0.20 6463027#0.21 6463027#0.23 6463027#0.25 6463027#0.26 6463027#0.28 6463027#0.31 6463027#0.33 6463027#0.35 6463027#0.37 6463027#0.39 6463027#0.76 292812446#5 8071899 6384359#0 6384359#0.22 6384359#0.45 6384359#0.50 6505136#7 6505136#7.55 6505136#7.66 6505136#7.74 6505136#7.92 6505136#7.104 8111709#2 8111709#2.49 -6464042#7 -6464042#7.121 -6464042#7.127 -6464042#7.144 -6464042#7.161 6384359#6 6384359#6.48 -6513783#4 -6513783#4.21 -6513783#4.23 -6513783#4.43 -6513783#4.80 -6513783#1 -6513783#1.10 -6513783#0 292812445#7 292812445#7.46 -620762224#1 -620762224#0 -66558981#7 -66558981#7.65 -66558981#7.83 -66558981#7.105 -66558981#7.123 243349944#6 243349944#7 243349944#8 243349944#9 243349944#10 243349944#10.7 243349944#10.84 -6360256#7 -6360256#7.5 -6360256#5 256994205#0 256994205#0.67 22917113#4 22917113#5 22917113#6 243349945#6 243349945#6.48 243349945#6.88 185485132#11 185485132#11.115 805658294#0 805658294#0.38 805658294#0.52 805658294#2 805658294#2.39 243349942#2 -805680044#10 6356676#0 -6463035#6 -6463035#6.50 -6463035#6.52 6495801#1 170683665#0 170683665#0.4 170683665#0.48 170683665#0.50 170683665#3 170683665#3.38 170683665#5 170683665#5.50 6349133#2 6349133#2.9 -40416130#0 40416127#0 40416127#0.9 40416127#0.27 535540393#0 535540393#0.12 535540393#0.32 535540393#0.47 912599280 337818332#0 337818332#0.7 337818332#0.70 -19000995#2 -19000995#2.7 -19000995#2.29 6414237#0 6414237#0.11 6414237#1 -6353172#1 40416130#3 40416130#3.42 40416130#3.45 -243352868#1 -243352868#1.19 -6521828#4 -6463035#13 -6463035#13.80 -6353177#3 -6353177#3.7 -6353177#3.98 -6353177#3.134 336908262#4 336908262#4.6 -359671039#10 -359671039#10.86 -805658294#8 -805658294#7 -805658294#7.50 -6472289#3 243349945#15 243349945#15.47 243349945#17 243349945#18 532125609#3 808266757#0 808266757#0.7 352434874#4 352434874#4.20 352434874#4.33 352434874#4.43 352434874#4.55 352434874#4.68 352434874#4.74 6474773#1 6474773#1.19 6474773#1.72 6474773#1.81 -263665040#4 -263665040#4.9 -263665040#4.18 -263665040#4.27 -263665040#4.36 -263665040#4.45 -263665040#4.54 -263665040#4.63 -263665040#4.72 -263665040#4.82 808266757#2 808266757#2.40 6409627#0 6409627#0.39 32135618#1 32135618#1.53 336908261#0 336908261#0.6 336908261#0.47 336908261#0.72 -337698847#4 -337698847#4.8 -337698847#4.17 -337698847#4.27 -337698847#4.37 -337698847#3 -337698847#3.12 -337698847#3.24 -337698847#3.38 6430750#0 -6354200#1 -6343958#2 -6343958#1 -6343958#0 -336908257#8 -243349944#32 -243349944#31 -243349944#31.42 -243349944#29 -263665040#1 -263665040#1.27 -263665040#1.83 -263665040#1.86 -6447445#17 -352434874#0 -263665039 -263665039.32 -263665039.58 -263665039.72 -6449970#12 -243349338#10 359671039#3 -438895608#0 -438895608#0.27 438895607 438895607.119 160624558#0 160624558#0.9 160624558#0.16 -243349944#24 -243349944#24.50 -6472289#1 -6447445#11 -6447445#10 -6447445#10.48 -6494975#6 -6494975#6.81 256994205#3 428246847#0 428246847#0.8 428246847#0.22 6386110#0 6386110#0.16 6386110#0.25 6386110#0.55 -243349338#6 -243349338#6.14"/>
</vehicle>
<vehicle id = "veh21" type= "veh_passenger" depart="18025" >
<route edges =" -816616074#1 -816616074#1.10 -816616074#1.14 -816616074#1.119 428341734#4 428341734#4.8 428246439#0 428246439#0.14 428246438#0 428246438#0.8 428246440#0 428246440#0.62 800744529#0 800744529#0.7 800744529#0.52 800744529#0.89 -349901821 -6476313#2 -6476313#2.11 -6476313#2.29 -6476313#2.98 -6476313#2.99 -6476313#2.103 -6476313#2.107 164418944#4 164418944#4.7 164418944#4.8 164418944#4.29 164418944#4.51 164418944#4.95 32135548#0 32135548#0.6 32135548#0.48 32135548#0.53 32135548#0.64 32135548#0.89 32135548#0.90 32135548#5 32135548#5.7 32135548#5.49 32135548#5.88 -6440371#11 -6440371#11.12 -6440371#11.144 293775902#8 293775902#8.6 293775902#8.49 293775902#8.91 293775902#12 293775902#12.3 293775902#12.50 6481166#12 525497323#2 525497323#2.81 40416132#0 40416132#0.19 40416132#1 40416132#1.90 256994206#0 256994206#0.8 256994206#0.43 256994206#0.60 460419028#0 460419028#0.11 460419028#0.49 460419028#0.79 460419028#0.95 243349338#0 243349338#0.18 -6360256#3 -6360256#3.44 6464126#7 6464126#7.50 6464126#9 6464126#9.46 185485132#4 185485132#5 185485132#5.98 256994205#2 256994205#2.24 256994205#2.72 -6494975#4 -6494975#4.53 243349338#5"/>
</vehicle>
<vehicle id = "veh22" type= "veh_passenger" depart="18025" >
<route edges =" 817434294 817434294.10 817434294.36 817434294.44 817434294.63 817434294.119 816616072#4 816616072#4.7 816616072#4.62 816616072#4.121 6430729#0 6430729#0.7 6430729#0.86 6430729#3 6430729#3.9 6430729#3.48 -620762212#3 -620762212#2 -620762212#2.76 -620762212#2.120 -800744530#5 -800744530#5.9 -800744530#5.19 -800744530#5.73 -800744530#5.84 -800744530#5.118 -800744528#1 -800744528#1.8 -800744528#1.16 -800744528#1.37 -800744528#1.72 -337673339 -337673337 -337673338#1 -337673338#1.9 -395714916#1 -395714916#1.12 -568043367 -568043367.41 -568043367.79 -293775903#2 -293775903#2.10 -293775903#2.37 -293775903#2.89 -293775903#2.118 -475161306#1 -475161306#1.9 -475161306#1.92 -475161306#1.120 353690155#0 353690155#0.10 353690155#0.51 353690155#0.58 353690155#0.90 -243338979#17 -243338979#17.7 -243338979#17.60 -243338979#17.109 -243338979#17.118 -243338979#17.120 486864438#2 486864438#2.6 486864438#2.88 353690152#0 353690152#0.9 353690152#0.90 893866055#0 893866055#0.7 893866055#0.120 893866055#0.121 353690154#0 353690154#0.7 353690154#0.49 353690154#0.90 -22917111#13 -22917111#13.8 -22917111#13.10 -22917111#13.79 -22917111#13.80 -22917111#13.98 -22917111#13.123 460419029#5 460419029#5.8 460419029#5.52 460419029#5.91 460419029#9 460419029#9.7 460419029#9.45 -901419468#4 -901419468#4.51 -901419468#4.132 -901419468#4.164 -901419468#4.186 -901419468#4.196 -901419468#4.197 465971499#0 465971499#0.6 -6481166#6 6467507#3 6467507#4 6467507#4.48 6467507#6 6467507#6.51 6467507#8 6467507#8.87 6516509#8 6516509#8.7 6516509#8.85 6516509#11 6516509#11.6 6516509#11.34 6516509#11.86 169917351#12 169917351#12.9 169917351#12.42 169917351#12.90 -6360239#3 -6360239#3.6 -6360239#3.69 -6360239#3.102 6487445#0 6487445#0.8 6415147#0 6415147#0.61 6415147#2 6497081#2 6497081#2.38 6497081#2.47 6497081#2.53 6497081#2.60 6497081#2.67 6497081#2.70 6497081#2.74 6497081#2.81 6497081#2.120 6497081#6 6497081#6.44 6497081#8 6371720#3 157167355#0"/>
</vehicle>
<vehicle id = "veh23" type= "veh_passenger" depart="18025" >
<route edges =" -814326475#2 -814326475#2.9 -814326475#2.24 -814326475#2.41 -814326475#2.70 -814326475#2.91 -6456052#5 -6456052#5.10 -6456052#5.36 -6456052#5.120 -6456052#1 -6456052#1.10 -6456052#1.62 -607691082#1 -607691082#0 -6475815#3 -6475815#3.2 -6475815#3.17 -6475815#3.46 -428089348#3 -428089348#3.15 -428089348#3.21 -428089348#3.28 332223491#0 332223491#0.12 6438604#0 6438604#0.3 6438604#0.6 6438604#0.8 6438604#0.10 6438604#0.11 6438604#0.13 6438604#0.44 6438604#0.60 -22927969#14 -22927969#14.8 -22927969#14.47 -22927969#14.89 -293753570#5 -293753570#5.6 -293753570#5.37 -293753570#5.47 -293753570#5.60 -293753570#5.82 -293753570#2 -293753570#2.9 -293753570#2.83 293753571#0 293753571#0.5 293753571#0.20 293753571#0.24 -353690151#2 -353690151#2.9 -353690151#2.22 -353690151#2.24 -353690151#2.39 -353690151#2.72 -353690151#2.92 -433500388#1 -433500388#1.11 -433500388#1.46 -433500388#1.73 -433500388#1.113 -433500388#1.115 -428088900#1 -428088900#1.10 -428088894#1 -428088894#1.25 -532166310#2 -532166310#2.3 -532166310#2.13 -369877039 -369877039.36 -369877039.55 -428088903#1 -428088903#1.15 428231018#0 428231018#0.12 428231018#0.30 465971497#0 465971497#0.10 465971497#0.34 576974321#0 576974321#0.11 576974321#0.20 576974321#0.50 576974321#0.92 -6502980#7 -6502980#7.6 -6502980#7.48 -6502980#7.86 6516984#2 6516984#2.5 6516984#2.47 6516984#2.86 537686684#0 537686684#0.43 537686684#0.53 -332223489#3 -332223489#3.4 -332223489#3.15 -332223489#3.17 -332223489#3.21 -401497115 -401497115.113 -401497115.170 -401497115.214 -428233435 -460425668 -460425668.5 -6457806#2 -6457806#2.21 -6457806#2.25 -6457806#2.30 6465162#0 6465162#0.2 6465162#0.6 6465162#0.11 6465162#0.36 428233434 428233434.31 428233434.58 332223487#0 332223487#0.16 332223487#0.62 332223487#0.98 893872038 893872038.9 893872038.14 893872038.97 893872038.123 893872038.129 893872038.134 347092915#0 347092915#0.8 347092915#0.32 347092915#0.44 347092915#0.89 347092915#0.182 -6506833#10 -6506833#10.7 -6506833#10.19 -6506833#10.42 -6506833#10.46 -6506833#10.83 -6506833#4 -6506833#4.8 -6506833#4.38 -6506833#4.55 -6506833#4.83 6346769#0 6346769#0.7 6346769#0.45 6346769#0.83 6346769#0.104 901477545#4 901477545#4.7 901477545#4.69 901477545#7 901477545#7.5 901477545#7.83 169917351#0 169917351#0.8 169917351#0.53 169917351#0.88 6481166#4 6507809#3 6507809#4 -6515975#5 -6515975#5.48 -6515975#3 -6515975#3.6 -6515975#3.44 -6515975#3.102 6445835#0 6445835#0.41 -22917665#1 -22917665#1.88 881403606#4 881403606#4.53 881403608#2 881403608#2.2 881403608#2.5 881403608#2.8 881403608#2.11 -881403607#2 -881403607#2.42 -881403607#2.60 22917664#0 22917664#0.8 22917664#0.73 965874292#3 965874292#3.1 965874292#3.48 965874292#3.59 965874292#3.86 965874292#7 965874292#7.8 965874292#7.41 965874292#10 965874292#10.35 965874292#12 965874292#12.8 965874292#12.69 158123767#0 158123767#0.10 158123767#0.11 158123767#0.50 158123767#0.74 158123767#0.86 158123767#0.115 158123767#0.122 158123767#0.134 158123767#0.139 158123767#0.166 795669781 795669781.52 795669781.56 460421481#1 460421481#1.61 460421481#1.85 -428247194#1 -428247194#1.9 -428247194#1.28 -157167355#3 -157167355#3.5 -157167355#3.43 -157167355#0"/>
</vehicle>
<vehicle id = "veh24" type= "veh_passenger" depart="21630" >
<route edges =" -813722269#3 -813722269#3.7 -813722269#3.48 -813722269#3.84 -813722269#3.86 569505974#0 569505974#0.10 569505974#0.37 816616073#0 816616073#0.78 6343949#3 6343949#3.9 6343949#3.49 6343949#6 6343949#7 -8071898#2 -8071898#1 -8071898#1.60 -8071898#1.73 -8071898#1.89 -8071898#1.91 292812445#0 292812445#0.35 292812445#0.50 -65588093#3 6430729#13 6430729#13.48 6440348#14 6464042#0 6464042#0.76 6463017#2 6463017#2.44 6463017#2.48 6463017#5 6463017#6 6463017#6.48 6386837#1 6386837#2 6384359#12 6384359#12.14 6384359#12.24 6384359#12.93 8071925#0 8071925#0.9 8071925#0.55 -6383185#2 -6383185#2.45 -6383185#2.115 -737709039#1 -737709039#1.40 -737709039#1.45 -343521145#3 -343521145#3.32 -343521145#3.66 -343521145#3.101 -343521145#3.142 -343521145#3.155 337739267#0 337818462 337818462.3 337818462.6 337739271#1 337739271#1.6 337739269#0 337739269#1 337739269#1.30 337739269#3 337739269#3.69 396055523#5 396055523#5.8 396055523#5.42 396055523#7 396055523#7.122 243349944#10 243349944#10.7 243349944#10.84 243349944#13 243349944#13.47 243349944#13.51 243349944#15 243349944#15.48 -185485132#9 6447445#7 6447445#7.46 6494975#7 6494975#8 6494975#9 6494975#9.108 6494975#9.119 6494975#10 6494975#10.11 6494975#10.19 6356676#0 6463035#7 -279467136#0 -279467136#0.18 -279467136#0.24 -243349942#2 -243349942#1 -243349942#1.104 243349945#13 243349945#13.48 -6472289#2 -243349944#22 -243349944#22.50 -22760521#3 -22760521#2 -22760521#2.81 -22760521#2.121 428246847#0 428246847#0.8 428246847#0.22 6386110#0 6386110#0.16 6386110#0.25 6386110#0.55 -243349338#6 -243349338#6.14"/>
</vehicle>
<vehicle id = "veh25" type= "veh_passenger" depart="21630" >
<route edges =" -816616074#1 -816616074#1.10 -816616074#1.14 -816616074#1.119 428341734#4 428341734#4.8 428246439#0 428246439#0.14 428246438#0 428246438#0.8 428246440#0 428246440#0.62 -800744528#1 -800744528#1.8 -800744528#1.16 -800744528#1.37 -800744528#1.72 826314456#0 826314456#0.9 826314456#0.50 826314456#0.96 826314456#0.103 349901822#0 349901822#0.9 96029553#0 96029553#0.9 96029553#0.15 96029553#0.59 8071900#0 8071900#0.7 8071900#0.18 8071900#0.88 -22917111#26 -22917111#26.7 -22917111#26.41 -22917111#26.121 32135548#5 32135548#5.7 32135548#5.49 32135548#5.88 32135548#9 32135548#9.7 32135548#9.47 32135548#9.63 32135548#9.78 525497323#0 525497323#0.50 -6481166#12 -6481166#11 -6481166#11.122 -6481166#11.125 6464138#14 -481291488#1 6464126#0 6464126#0.46 6464126#0.49 -460419011#1 -460419011#1.97 243339793#2 243339793#2.49 243339793#4 243339793#5 243339793#6 243339793#6.50 243339793#6.74 243339793#9 243339793#9.48 -185485132#2 -185485132#2.8 481291012#2 481291012#2.49 481291012#5 481291012#5.49 6498476 6498476.121 6498476.127 6498476.134 -926425193#0 -926425193#0.24 -926425193#0.35 -926425193#0.76 -926425193#0.112 -428246846 -428246846.4 -428246846.17 -428246846.29 8071924#0 8071924#0.13 8071924#1 8071924#1.18 8071924#1.30 -6472293#5 -6472293#5.39 185485117#1 6501822#5 6501822#5.157 8071924#5 259277920#0 259277920#0.29 259277920#0.47 -6449970#7 -6449970#7.42 6425683#0 6506505#3 6506505#4 6506505#5 -6464130#4 -6449970#10 -6336174#3 -6336174#3.40 359671039#1 -6464130#1 -6464130#1.43 6501822#12 -243349338#8 -795671505#2 -6464126#16 -6464126#16.47 -6464126#14 -6464126#14.50 6494975#2 243349338#5"/>
</vehicle>
<vehicle id = "veh26" type= "veh_passenger" depart="21630" >
<route edges =" 817434294 817434294.10 817434294.36 817434294.44 817434294.63 817434294.119 6343949#0 6343949#0.7 6343949#0.86 -816616073#1 -816616073#1.7 -569505974#1 -569505974#1.6 -569505974#1.33 -569505976#2 -569505976#2.9 -569505976#2.88 -569505976#2.115 -569505976#2.119 -569505978#1 -569505978#1.10 -569505979 -569505979.32 -569505979.79 337673338#0 337673338#0.14 185882764 185882764.13 185882764.14 185882765 185882765.16 185882765.26 185882765.30 185882765.31 -243338979#28 -243338979#28.13 -243338979#28.49 -243338979#28.142 -243338979#28.143 893866065#3 893866065#3.6 893866065#3.48 893866065#3.88 893866065#7 893866065#7.7 893866065#7.48 893866065#7.90 293775902#0 293775902#0.7 293775902#0.52 293775902#0.90 -22917111#19 -22917111#19.8 -22917111#19.123 -22917111#19.125 -22917111#19.126 -22917111#16 -22917111#16.4 -22917111#16.5 -22917111#16.7 -22917111#16.120 -22917111#16.122 353690154#4 353690154#4.6 353690154#4.49 353690154#4.54 353690154#4.87 -6440371#2 -6440371#2.9 -6440371#2.11 -6440371#2.121 -6440371#2.122 460419029#9 460419029#9.7 460419029#9.45 486874837#0 486874837#1 486874837#2 486874837#2.47 -460419014 -460419014.67 6425689#2 6425689#2.48 -6380913#13 -6380913#12 -6380913#11 -6380913#11.53 -6380913#7 -6380913#7.22 -6380913#5 6507809#7 6507809#7.46 6507809#7.87 6507809#10 6507809#10.8 6507809#10.91 6507809#13 6507809#13.9 6507809#13.77 6452520#6 6452520#6.7 185485118#0 185485118#0.64 185485118#0.103 185485118#0.149 6514312#0 6514312#0.70 926425191#0 926425191#0.5 926425191#2 -926425193#1 -926425193#1.9 -926425193#1.20 -926425193#1.31 -926425193#0 -926425193#0.24 -926425193#0.35 -926425193#0.76 -926425193#0.112 -428246846 -428246846.4 -428246846.17 -428246846.29 -428246845 -6386110#6 -6386110#6.5 -6386110#4 -6386110#4.86 6464126#15 6464126#15.47 6464126#17 6464126#17.40 -6501822#10 6336174#0 6336174#0.42 6336174#2 6336174#2.43 6449970#10 6464130#4 6464130#5 -243349331#1 -243349331#1.102 -6336174#5 -6506505#4 -6506505#3 -6506505#2 -6463541#4 -6463541#4.39 -6463541#4.42 -6449970#3 -6449970#2 -6449970#1 -6449970#1.18 -6507818#2 6396312#0 -185485127#10 -185485127#9 -185485127#9.41 -185485127#9.47 -6472293#2 6507813#1 6507813#1.41 6507813#1.49 -6501822#1 -6501822#0 -6501822#0.165 6354836#0 6354836#0.6 -6415147#7 -6415147#6 -6489809#1 -6489809#1.47 -256996977#2 -256996977#2.16 -256996977#2.48 -460421482#10 -460421482#10.13 -460421482#10.46 -460421482#10.56 -460421482#10.76 -460421482#6 -460421482#6.7 -460421482#6.25 -460421482#6.31 -460421482#6.72 -460421482#2 -460421482#2.6 -460421482#2.70 6449462#0 6449462#0.9 6449462#0.46 6449462#3 6449462#3.7 6449462#3.50 6449462#3.60 6449462#3.72 6449462#3.87 795669781 795669781.52 795669781.56 6497081#6 6497081#6.44 6497081#8 6371720#3 157167355#0"/>
</vehicle>
<vehicle id = "veh27" type= "veh_passenger" depart="21630" >
<route edges =" -814326475#2 -814326475#2.9 -814326475#2.24 -814326475#2.41 -814326475#2.70 -814326475#2.91 -6456052#5 -6456052#5.10 -6456052#5.36 -6456052#5.120 -607690679#4 -607690679#4.9 -607690679#4.87 -607690679#4.94 -607690679#4.99 -797328240#3 -797328240#3.13 -797328240#3.26 -797328240#3.65 -797328240#3.93 -797328240#3.115 -337673342#5 -337673342#5.3 -337673342#5.9 -337673342#5.13 -337673342#5.21 -337673342#5.35 -337673342#5.72 -607691082#1 -607691082#0 -6475815#3 -6475815#3.2 -6475815#3.17 -6475815#3.46 -428089348#3 -428089348#3.15 -428089348#3.21 -428089348#3.28 -428341218#2 -428341218#2.3 -428341218#2.9 -65588069#1 -65588069#1.13 -428089351#1 -428089351#1.16 -428089352#1 -428089352#1.12 -428089350 -428089350.17 -428089350.43 -428227812#1 -428227812#1.9 -428227851#1 -428227851#1.5 -13726934#1 -13726934#1.5 -428227808 -428227847#1 -428227847#1.17 -428227803#1 -428227803#1.9 -428227860 -428227860.14 -428227828 -428227842 -428227822#1 -428227822#1.17 -428227833#1 -428227833#1.13 -428227838 -428227854#1 -428227854#1.5 -428227818 -428227865#1 -428227865#1.18 338073583#14 338073583#14.11 338073583#14.23 338073583#14.40 338073583#14.60 338073583#14.86 -80574890#3 -80574890#3.8 -80574890#3.48 -80574890#3.78 -80574890#3.88 -621283347#4 -621283347#4.8 -621283347#4.61 -621283347#4.75 -621283347#4.82 -169511255#15 -169511255#15.10 -169511255#15.84 -706262355#2 -706262355#2.9 -706262355#2.15 -706262355#2.50 -8111067#8 -8111067#8.8 -8111067#8.39 -8111067#8.57 -8111067#8.85 6394322#4 6394322#4.4 6394322#4.52 6394322#4.86 6394322#4.89 6394322#8 6394322#8.6 6394322#8.15 6394322#8.48 6394322#8.88 338073583#7 338073583#7.8 338073583#7.14 338073583#7.85 263672156#3 263672156#3.7 263672156#3.57 263672156#3.86 369877031#0 369877031#0.10 369877031#0.31 369877031#0.46 369877031#0.88 -749622503#8 -749622503#8.7 -749622503#8.63 -749622503#8.83 -749622503#4 -749622503#4.84 -749622503#2 -749622503#2.9 -749622503#2.29 -749622503#2.64 -749622503#2.84 -6522514#4 -6522514#4.7 -6522514#4.36 -6522514#4.61 -6522514#4.66 -6522514#4.67 -6522514#4.73 -332223490#1 -332223490#1.19 6514305#0 6514305#0.3 6514305#0.4 6514305#0.9 6514305#0.14 6514305#0.34 6514305#0.54 -6456044#8 -6456044#8.8 -6456044#8.104 6463530#6 6463530#6.6 6463530#6.49 6463530#6.89 6463530#10 6463530#10.5 6463530#10.49 6463530#10.87 -6435230#7 -6435230#7.4 -6435230#7.24 -6435230#7.64 -6435230#5 -6435230#5.17 -893868549#6 -893868549#6.12 -893868549#6.14 -893868549#6.50 -893868549#6.94 -893868549#2 -893868549#2.10 -893868549#2.49 -893868549#2.89 -893868549#2.91 -893868549#2.93 -893868549#2.94 6456044#0 6456044#0.1 6456044#0.2 6456044#0.3 6456044#0.4 6456044#0.6 6456044#0.84 6467490#0 6467490#0.7 6467490#0.49 6467490#0.78 -401497115 -401497115.113 -401497115.170 -401497115.214 -537677478#2 -537677478#2.10 -537677478#2.11 -537677478#2.28 -537677478#2.36 -6456046#3 -6456046#3.6 -6456046#3.36 -6456046#3.42 -6456046#3.49 -6456046#3.56 -6456046#3.62 -6456046#3.66 -6456046#3.71 -6456046#3.76 -6456046#3.92 -6456046#3.102 -6456046#3.109 -6456046#3.112 440890310 440890310.65 425646003#0 425646003#0.15 6465162#0 6465162#0.2 6465162#0.6 6465162#0.11 6465162#0.36 428233434 428233434.31 428233434.58 332223487#0 332223487#0.16 332223487#0.62 332223487#0.98 332223488 332223488.25 332223488.48 332223488.65 332223488.68 332223488.88 347092907#0 347092907#0.3 347092907#0.13 347092907#0.19 347092907#0.26 347092907#0.31 347092907#0.38 347092907#0.40 347092907#0.45 347092907#0.51 332223494#0 332223494#0.18 332223494#0.35 332223494#0.144 332223494#0.171 6506833#15 6506833#15.8 6506833#15.10 6506833#15.35 6506833#18 6506833#18.45 749863323#4 749863323#4.7 749863323#4.50 749863323#4.155 749863323#4.186 760645196#0 760645196#0.8 760645196#0.188 -6388742#5 -6388742#5.6 -6388742#5.38 -6388742#2 -6388742#2.30 -6388742#2.38 965874292#7 965874292#7.8 965874292#7.41 965874292#10 965874292#10.35 965874292#12 965874292#12.8 965874292#12.69 158123767#0 158123767#0.10 158123767#0.11 158123767#0.50 158123767#0.74 158123767#0.86 158123767#0.115 158123767#0.122 158123767#0.134 158123767#0.139 158123767#0.166 795669782#0 795669782#0.54 6414318#1 6414318#1.86 6414318#3 -157167355#0"/>
</vehicle>
</routes>
