<?xml version="1.0" encoding="UTF-8"?>
<routes xmlns:xsi="http: // www.w3.org/2001/XMLSchema-instance" xsi:noNamespaceSchemaLocation="http: // sumo.dlr.de/xsd/routes_file.xsd">
<vType id="veh_passenger" vClass="passenger"/>

<vehicle id = "veh0" type= "veh_passenger" depart="0" >
<route edges =" -316633577#1 -316633577#0 -797309094#1 -797309094#0 -797309094#0.6 -797309094#0.12 -797309095 -165864174#3 -165864174#2 -165864174#1 -34361024#1 -34361024#0 -34361024#0.80 -188703042#5 -188703042#4 -188703042#4.59 -188703042#3 -188703042#3.6 -188703042#3.24 -188703042#2 -188703042#1 -188703042#1.59 -188703042#1.74 -188703042#0 -188703042#0.9 -188703042#0.21 -188703049 -201989352#2 -201989352#2.8 -201989352#1 -201989352#1.9 -201989352#1.29 -201989352#0 -34361041#1 -34361041#0 -34361041#0.92 -528122494 -528122494.9 -6360234#7 -6360234#6 -6360234#6.186 -6360234#6.194 -168627934#0 -168627934#0.7 -34811472#12 -34811472#12.8 -34811472#11 -34811472#10 -34811472#9 -34811472#9.6 -34811472#9.49 -34811472#8 -34811472#7 -34811472#6 -34811472#5 -34811472#4 -34811472#4.71 -34811472#3 -34811472#3.7 -34811472#3.66 -34811472#3.122 -34811472#3.194 -34811472#2 -34811472#2.8 -34811472#2.70 -34811472#2.135 -34811472#2.192 -24024251#2 -24024251#2.7 -910274653#0 -930646447 -910274656 -210456949#12 -210456949#12.41 -210456949#11 -210456949#10 -210456949#9 -210456949#9.190 -210456949#8 -210456949#8.10 -26379345#9 -26379345#8 -26379345#8.93 24028181#3 24028181#4 24028181#4.122 24028181#5 24028181#5.186 -190017518#0 -190017518#0.7 -190017518#0.88 -999534620#25 -999534620#24 -999534620#24.3 -541349569 -541349569.193 -6356133#2 -6356133#2.8 -6356133#2.193 -6356133#1 -6356133#1.9 -6356133#0 -541349570 -819368215#0 -819368215#0.76 415870533#8 415870533#8.6 415870533#9 415870525#0 415870525#0.13 415870525#1 415870525#2 22370937#0 22370937#1 22370937#2 22370937#3 22370937#3.6 22370937#4 22370937#4.6 22370937#5 22370937#5.11 22370937#6 22370937#7 415870519#0 415870519#1 415870531#0 415870531#1 415870531#1.26 415870531#2 22370936#0 22370936#0.7 22370936#0.14 -6353149 1014203284#2 -30832687#3 -30832687#3.8 422792872#1 422792872#1.9 -6346111#4 -6346111#4.91 -6346111#4.93 195433868#5 195433868#5.7 195433868#6 195433868#6.6 -7840628#2 -7840628#2.8 -7840628#1 -7840628#1.193 168627943#7 168627943#7.7 -24164451#1 -24164451#1.7 -24164451#1.193 -24164451#0 24164453 24164453.10 24164453.23 32456680 32456680.2 -422947668 -422947668.11 -233686193 -233686193.8 -196750859#2 -196750859#1 -196750859#1.40 6378198#0 6378198#0.13 6378198#0.178 6378198#0.195 6378198#1 6378198#2 6378198#3 6378198#3.3 6378198#4 6378198#4.3 697544433#2 697544433#2.14 6351007#0 6351007#0.29 6351007#0.46 6351007#0.52 6351007#0.56 6351007#0.62 6351007#0.66 6351007#0.72 6351007#0.77 6351007#0.83 6351007#0.89 6351007#0.98 6351007#1 -6332167#0 -6332167#0.10 6386692#3 6386692#3.3 6386692#3.6 6386692#3.9 6338567#0 6338567#0.10 6338567#0.118 6338567#1 6338567#1.107 6338567#2 6338567#3 6338567#3.80 6338567#4 6338567#4.78 6338567#5 6338567#5.8 6338567#6 6338567#7 6338567#7.90 6338567#8 6338567#8.11 6338567#9 6338567#10 6338567#11 6338567#12 30156401#0 -6333513#3 -6333513#3.137 -11043363#3 -11043363#3.7 -11043363#2 -11043363#1 -11043363#0 7857575#0 7857575#0.10 7857575#0.24 7857575#0.39 7857575#0.57 7857575#0.75 7857575#0.88 7857575#0.126 7857575#0.144 7857575#0.146 7857575#0.162 7857575#0.184 7857575#0.212 7857575#0.218 7857575#0.224 7857575#0.229 7857575#0.241 7857575#0.275 7857575#0.303 7857575#0.315 7857575#0.324 7857575#0.326 7857575#0.339 7857575#0.350 7857575#0.357 7857575#0.360 7857575#0.410 7857575#1 7857575#1.42 7857575#1.66 7857575#1.85"/>
</vehicle>
<vehicle id = "veh1" type= "veh_passenger" depart="0" >
<route edges =" 797309093 797309091#0 797309091#0.10 797309091#1 797309091#1.7 797309091#2 797309091#2.10 797309091#2.15 797309091#3 377635148 377635148.3 377635148.5 -437142992 -437142992.6 -6329160 -6329160.124 -6329160.133 785854260#3 785854260#3.11 785854260#3.30 -763290363 -763290363.11 -24620691#4 -24620691#3 -24620691#2 -24620691#1 -24620691#0 24620690 24620690.5 -24620688 24620689#0 24620689#0.6 24620689#1 24620689#1.9 -201989358#2 -201989358#2.18 -201989358#1 -201989358#1.6 -201989358#1.82 -201989358#0 -195430724#15 -195430724#14 -195430724#14.20 -195430724#13 -195430724#13.78 -195430724#12 -195430724#12.8 -195430724#12.12 -195430724#11 -195430724#11.17 -164659478#5 -164659478#5.7 -164659478#4 -6362542#1 -6362542#1.7 -6362542#0 -6362542#0.104 -7783135#3 -7783135#3.7 -7783135#2 -7783135#2.7 -7783135#1 -7783135#0 -7783135#0.101 43256415 43256415.22 -6345181#8 -6345181#8.4 -6345181#8.7 -6345181#8.93 541334899#0 541334899#0.7 541334899#1 541334899#2 541334899#3 541334899#4 541334899#5 541334900#0 541334900#1 541334900#2 541334900#3 541334900#4 541334900#5 541334900#6 698994092#3 698994092#4 698994092#4.84 6348015 6348015.7 761330890 761330889#0 761330889#1 761330889#2 761330889#3 761330889#3.83 761330889#4 517593873#2 517593873#2.29 517593873#3 415876778 22278225#0 22278225#0.24 22278225#1 22278225#1.6 22278225#1.16 22278225#1.26 196779231#0 196779231#0.12 196779231#1 196779231#1.17 21452694#0 21452694#0.5 21452694#0.7 21452694#0.9 21452694#0.14 21452694#0.21 21452694#0.27 21452694#0.101 21452694#1 21452694#1.9 21452694#1.14 21452694#1.27 21452694#2 415878130#0 415878130#1 415878131#0 415878131#1 682209186 196779232 196779232.9 415878126 415878126.6 415878137#0 415878137#1 194859188#0 194859188#1 194859188#1.24 415878134#0 415878134#1 202177316#0 202177316#1 202177316#2 415878127 415878127.3 415878136#0 415878136#1 -415876790#1 -415876790#0 -756453993 -559526390 -559526390.35 -164658213#11 -164658213#11.10 -164658213#11.12 -164658213#10 -164658213#10.55 -164658213#9 -164658213#8 -164658213#7 -164658213#6 -164658213#6.156 -164658213#5 -164658213#5.7 -164658213#4 -164658213#4.36 -164658213#3 -164658213#2 -164658213#1 -164658213#0 -164658213#0.113 164658212#0 164658212#0.7 164658212#1 193256683#0 193256683#1 193256683#1.83 -618189913#5 -618189913#5.7 -618189913#5.17 -618189913#5.34 -618189913#4 -618189913#4.5 -618189913#4.9 -618189913#4.25 -618189913#3 -618189913#2 -618189913#1 -618189913#1.76 -618189913#1.91 -618189913#0 -618189913#0.6 -618189913#0.24 -618189913#0.90 -618189913#0.190 -618189913#0.204 -618189913#0.219 -618189913#0.231 -694455409#6 -694455409#6.8 -694455409#6.11 -694455409#6.20 -694455409#6.38 -694455409#5 -694455409#5.10 -694455409#5.23 -694455409#5.42 -694455409#5.118 6402116#0 6402116#0.7 6402116#0.10 6402116#0.16 6402116#0.20 6402116#0.54 6402116#0.162 6402116#0.179 6402116#0.194 6402116#0.209 6402116#0.228 6402116#0.245 6402116#0.264 6402116#0.286 6402116#0.307 6402116#0.326 6402116#0.377 6402116#0.411 6402116#0.433 -190579762#17 -190579762#17.47 6341488#16 6341488#16.13 6341488#16.20 6341488#16.48 6341488#16.58 6341488#16.72 6341488#16.96 6341488#16.142 6341488#16.158 6341488#16.170 6341488#16.183 6341488#16.197 -6336093#4 -6336093#4.17 -6336093#4.38 -6336093#4.53 -6336093#4.79 -6336093#4.90 -6336093#3 -6336093#3.13 -6336093#3.25 -6336093#3.39 -6336093#3.120 -6336093#3.127 -6336093#3.135 -6336093#2 -6336093#1 -6339085#8 -6339085#8.12 -6339085#8.19 -6339085#8.28 -6339085#8.38 -6339085#8.98 -6339085#8.116 -6339085#7 -6339085#7.29 -6339085#7.47 -6339085#7.68 -6339085#7.87 -6339085#7.110 -6339085#6 -6339085#5 -6339085#5.13 -6339085#5.24 -6339085#5.39 -6339085#4 -6339085#4.58 -6339085#4.92 -6339085#4.103 -6339085#3 -6339085#3.11 -6339085#3.19 -6339085#3.40 -6339085#3.47 -6339085#3.56 -6339085#3.68 -6339085#3.81 -6339085#3.95 -6339085#3.107 -6339085#3.120 -6339085#2 -6339085#2.14 -6339085#2.26 -6339085#2.37 -6339085#2.49 -6339085#2.63 -6339085#2.115 -6339085#2.125 -6339085#2.140 -6339085#1 -6339085#0 -6339085#0.12 -6339085#0.27 -6339085#0.45 -6339085#0.77 -6339085#0.87 -6339085#0.98 -6339085#0.119 -6339085#0.129 -190579779#0 -190579779#0.109 -190579779#0.117 6333513#0 6333513#0.10 6333513#0.40 6333513#0.51 6333513#0.62 6333513#0.73 6407689#0 -11043364#4 -11043364#3 -11043364#2 -11043364#1 -11043364#0 -11043364#0.73 -11043364#0.81 -7857575#1 -7857575#1.27 -7857575#1.57 -7857575#1.75 -7857575#1.83 -7857575#1.99 -7857575#1.115 -7857575#1.152 -7857575#1.166 -7857575#1.179 -7857575#1.219 -7857575#1.229 -7857575#1.268 -7857575#1.290 -7857575#1.315 -7857575#1.332 -7857575#1.343 -7857575#1.361 -7857575#1.378 -7857575#1.390 -7857575#1.402 -7857575#1.416 -7857575#1.443 -7857575#1.452 -7857575#1.462"/>
</vehicle>
<vehicle id = "veh2" type= "veh_passenger" depart="3605" >
<route edges =" -316633577#1 -316633577#0 -797309094#1 -797309094#0 -797309094#0.6 -797309094#0.12 -797309095 -165864174#3 -165864174#2 -165864174#1 -34361024#1 -34361024#0 -34361024#0.80 -188703042#5 -188703042#4 -188703042#4.59 6402088#1 6402088#1.8 6402088#1.193 -24620691#3 -24620691#2 -6352892 -6352892.7 -188703042#1 -188703042#1.59 -188703042#1.74 -188703042#0 -188703042#0.9 -188703042#0.21 -188703049 -201989352#2 -201989352#2.8 -201989352#1 -201989352#1.9 -201989352#1.29 -201989352#0 -34361041#1 -34361041#0 -34361041#0.92 -528122493#2 -528122493#2.7 -528122493#1 -528122493#0 -6362542#4 -6362542#4.10 -6362542#3 -6362542#3.78 -6362542#3.89 -6362542#3.98 -6362542#3.102 164659477#8 164659477#8.105 -6360234#7 164659478#5 164659478#5.101 6332541#0 6332541#0.7 6332541#1 -24620185#2 -24620185#2.7 -24620185#2.83 -24620185#1 -24620185#1.6 -24620185#1.74 -24620185#0 -24620185#0.6 -24620185#0.70 -24620185#0.73 24620184#0 24620184#0.3 24620184#0.6 24620184#0.11 24620184#1 24620184#1.36 -201989376 -201989376.8 -201989376.15 -698994088#2 -698994088#1 -698994088#1.18 -698994088#0 -698994088#0.76 -698994089#1 -698994089#1.4 -24620180 -24620180.9 -24620180.11 -24620180.92 -24620180.94 -24620180.96 24620182 24620182.2 24620182.6 24620182.11 24620182.187 24620182.191 24620182.193 -6369662#1 -6369662#1.2 -6369662#1.4 -6369662#1.8 -6382818#1 -6348367#0 -6348367#0.92 195430724#2 195430724#2.8 -164659473#12 -164659473#12.8 6360234#4 6360234#5 6360234#5.24 6360234#5.33 -168627934#0 -168627934#0.7 -34811472#12 -34811472#12.8 -34811472#11 -34811472#10 -34811472#9 -34811472#9.6 -34811472#9.49 -34811472#8 -34811472#7 -34811472#6 -202317716#4 -202317716#3 -202317716#3.20 -202317716#3.88 -202317716#2 -202317716#1 -202317716#1.25 -202317716#1.51 -202317716#0 -515883300#4 -515883300#3 -515883300#2 -515883300#1 -515883300#0 -515883300#0.102 164659505#2 164659505#2.1 164659505#2.2 164659505#2.4 164659505#2.5 164659505#3 164659505#3.1 164659505#3.3 164659505#3.4 164659505#3.6 164659505#4 164659505#0 164659505#0.1 164659505#0.2 164659505#0.4 164659450#0 164659450#0.3 164659450#0.87 -23226443#1 -23226443#1.8 -23226443#1.192 164659462#1 164659462#1.7 164659462#1.92 164659509#3 164659509#3.1 164659509#3.3 164659509#3.4 164659509#3.6 -25315987 -25315987.3 25315985 25315985.7 25315985.12 25315893 25316476 25316476.7 25315896#0 25315896#0.27 25315896#1 25315896#2 25315896#3 25315896#3.66 25315896#3.71 229957845 229957845.4 229957845.6 229957845.10 229957845.15 229957845.18 -10723756#6 -10723756#6.13 -10723756#6.28 -10723756#6.160 421385008#0 421385008#0.8 421385008#0.9 421385008#0.71 421385008#1 421385008#1.7 421385008#2 421385008#2.48 421385008#3 421385008#3.7 421385008#4 421385008#4.45 421385008#5 421385008#5.7 421385008#6 417696932#0 417696932#0.10 417696932#1 -778470340#6 -778470340#5 -778470340#5.17 -778470340#4 -778470340#3 -778470340#2 -778470340#1 -778470340#0 -778470340#0.10 -778470340#0.19 32894456#0 32894456#0.16 32894456#0.21 32894456#1 32894456#1.2 32894456#1.5 32894456#1.8 32894456#1.11 202317699#0 202317699#0.17 202317699#1 202317699#2 202317699#3 202317699#4 202317699#5 202317699#6 202317699#7 202317699#8 202317699#9 202317699#10 202317699#10.21 202317699#11 202317699#12 1000720853#0 1000720853#1 1000720853#1.19 1000720853#2 1000720853#3 1000720853#4 1000720853#5 1000720853#6 1000720853#7 1000720853#7.136 164659511#4 164659511#0 164659511#0.1 164659511#0.3 164659511#0.4 164659511#1 164659511#1.1 164659511#1.2 164659511#1.4 164659511#1.5 164659511#2 164659511#2.1 164659511#2.2 164659511#2.4 164659511#2.5 -164659460 -164659460.2 -164659460.87 164659515#1 164659515#1.1 164659515#1.3 164659515#1.4 164659515#1.6 164659482 164659482.3 164659482.186 164659489#4 164659489#0 164659489#0.1 164659489#0.2 164659489#0.4 164659489#1 164659489#1.1 164659489#1.3 164659489#1.4 164659489#1.6 164659489#2 164659489#2.1 164659489#2.3 164659489#2.4 164659489#2.6 -164659447#1 -164659447#1.3 -164659447#1.87 -34811472#2 -34811472#2.8 -34811472#2.70 -34811472#2.135 -34811472#2.192 -24024251#2 -24024251#2.7 -910274653#0 -930646447 -910274656 -210456949#12 -210456949#12.41 -210456949#11 -210456949#10 -32456661#1 -25968342#4 -25968342#4.191 201989365#3 201989365#3.8 201989365#3.27 201989365#3.92 201989365#4 201989365#4.8 201989365#4.74 201989365#4.86 201989365#5 201989365#6 201989365#7 201989365#8 201989365#8.4 201989365#8.27 201989365#9 201989365#9.7 201989365#9.78 201989365#9.92 6332538#6 6332538#6.10 6332538#6.13 6332538#6.192 6332538#7 6332538#7.7 6332538#7.11 6332538#8 6332538#8.10 6332538#8.20 6332538#8.28 6332538#9 6332538#9.23 6332538#10 165864142#0 165864142#1 165864142#2 165864142#3 165864142#4 165864142#5 165864142#5.33 165864142#6 -25968331#2 -25968331#1 -25968331#0 -32456661#9 -32456661#9.7 -32456661#9.91 -25968351#5 -25968351#5.187 -25968351#5.190 -25968351#4 -25968351#4.10 -25968351#4.12 -25968351#3 -25968351#2 -25968351#1 -25968351#1.6 -25968351#1.77 -25968351#1.134 25968337#15 25968337#15.7 25968337#15.104 25968349#3 25968349#4 25968349#4.5 6343678#0 6343678#1 6343678#2 6343678#3 6343678#4 6343678#5 6343678#5.7 6343678#5.40 6343678#5.92 164659491#3 164659491#3.1 164659491#3.3 164659491#3.4 164659491#3.6 164659491#4 164659491#0 164659491#0.1 164659491#0.2 164659491#0.4 164659470 164659470.4 164659470.53 164659470.87 164659488#3 164659488#3.1 164659488#3.3 164659488#3.4 164659488#3.6 164659488#4 164659488#0 164659488#0.1 164659488#0.2 164659488#0.4 164659488#1 164659488#1.1 164659488#1.2 164659488#1.4 164659488#1.5 164659484 164659484.3 164659484.38 164659484.78 164659502#4 164659502#0 164659502#0.1 164659502#0.2 164659502#0.4 164659444 164659444.3 164659444.7 164659444.57 164659444.85 164659444.87 164659499#3 164659499#3.1 164659499#3.3 164659499#3.4 164659499#3.6 164659499#4 164659499#0 164659499#0.1 164659499#0.2 164659499#0.4 164659445 164659445.3 164659445.6 164659445.29 164659445.86 164659445.88 164659506#3 164659506#3.1 164659506#3.2 164659506#3.4 164659506#3.5 164659506#3.7 164659506#4 164659506#0 164659506#0.1 164659506#0.2 164659506#0.4 164659506#1 164659506#1.1 164659506#1.2 164659506#1.4 164659506#1.5 164659467#0 164659467#0.3 164659467#0.9 164659467#0.41 164659467#0.111 164659467#1 196739912#7 196739912#8 196739912#9 196739912#10 416111313#0 416111313#1 416111313#2 -574055688#20 -574055688#19 -574055688#18 -574055688#18.8 -574055688#17 -574055688#16 -574055688#16.40 -164659469#1 -164659469#1.9 -164659469#1.10 -164659469#0 -164659469#0.25 -164659469#0.27 164659490#1 164659490#1.1 164659490#1.2 164659490#1.4 164659490#1.5 164659490#2 164659490#2.1 164659490#2.2 164659490#2.4 164659490#2.5 -164659471 -164659471.4 -164659471.5 -164659471.44 -164659471.85 -164659471.88 164659496#1 164659496#1.1 164659496#1.2 164659496#1.4 164659496#1.5 164659496#2 164659496#2.1 164659496#2.3 164659496#2.4 164659496#2.6 164659496#3 164659496#3.1 164659496#3.3 164659496#3.4 164659496#3.6 -54584534#3 -54584534#3.3 -54584534#3.5 -54584534#2 -54584534#1 -54584534#0 -54584534#0.62 164659495#2 164659495#2.1 164659495#2.3 164659495#2.4 164659495#2.6 -164659435 -164659435.4 -164659435.81 -164659435.87 164659508#1 164659508#1.1 164659508#1.2 164659508#1.4 164659508#1.5 164659508#2 164659508#2.1 164659508#2.3 164659508#2.4 164659508#2.6 -164659434 -164659434.3 -164659434.86 164659494#1 164659494#1.1 164659494#1.2 164659494#1.4 164659494#1.5 164659494#2 164659494#2.1 164659494#2.3 164659494#2.4 164659494#2.6 -164659433 -164659433.3 -164659433.86 164659492#1 164659492#1.1 164659492#1.3 164659492#1.4 164659492#1.6 164659492#2 164659492#2.1 164659492#2.3 164659492#2.4 164659492#2.6 164659492#3 164659492#3.1 164659492#3.3 164659492#3.4 164659492#3.6 -6333116#2 -6333116#2.4 -6333116#1 -6333116#1.14 -6333116#1.75 -6333116#0 22370934#3 22370934#4 415883911#0 415883911#0.30 415883911#1 201989350#0 201989350#1 201989350#1.5 201989350#1.21 201989350#1.148 201989350#1.162 -25968348#1 -25968348#1.8 -25968348#1.93 -25968348#0 -25968348#0.6 -25968348#0.55 -25968348#0.67 -25968348#0.75 -25968348#0.80 25968353#2 25968353#2.1 25968353#2.2 25968353#2.3 25968353#2.4 25968353#2.5 25968353#2.6 25968353#3 25968353#3.1 25968353#3.2 25968353#3.3 25968353#3.4 -25968346#2 -25968346#2.3 -25968346#2.8 -25968346#1 -25968346#0 -25968346#0.40 25968357#2 25968357#2.1 25968357#2.3 25968357#2.4 25968357#2.6 25968357#3 25968357#3.1 25968357#3.3 25968357#3.4 25968357#3.6 -25968345#3 -25968345#3.3 -25968345#3.87 -25968345#2 -25968345#2.7 -25968345#2.93 6384487#8 6384487#8.7 6384487#8.56 6384487#8.69 -25968337#11 -25968337#10 -25968337#9 -210456949#5 -210456949#5.187 -25968343#0 -25968343#0.7 -25968343#0.90 25968344#2 25968344#2.1 25968344#2.3 25968344#2.5 25968344#2.6 25968342#0 25968342#0.3 25968342#1 -25968337#7 -25968337#6 -25968337#6.87 -25968337#6.89 -999534620#27 -999534620#27.6 -999534620#26 -999534620#26.51 -999534620#26.67 -999534620#26.74 -190017519 -190017519.7 25968341 25968341.18 25968341.56 -999534620#24 -999534620#24.3 -541349569 -541349569.193 -6356133#2 -6356133#2.8 -6356133#2.193 -6356133#1 -6356133#1.9 -6356133#0 -541349570 -819368215#0 -819368215#0.76 415870533#8 415870533#8.6 415870533#9 415870525#0 415870525#0.13 415870525#1 415870525#2 22370937#0 22370937#1 22370937#2 22370937#3 22370937#3.6 22370937#4 22370937#4.6 22370937#5 22370937#5.11 22370937#6 22370937#7 415870519#0 415870519#1 415870531#0 415870531#1 415870531#1.26 415870531#2 22370936#0 22370936#0.7 22370936#0.14 -6353149 1014203284#2 1014203284#3 1014203284#3.8 1014203284#3.193 1014203284#3.196 24314606#0 24314606#0.4 24314606#0.10 22370936#3 22370936#4 22370936#4.8 22370936#5 22370936#5.95 22370936#5.97 22370936#6 22370936#6.7 22370936#6.13 22370936#6.194 22370936#6.195 -23089173#2 -23089173#2.6 -23089173#2.28 -23089173#2.39 -23089173#2.51 -23089173#2.57 -23089173#2.90 -23089173#2.93 -24314605#6 -24314605#6.6 -6388365#5 -6388365#5.6 -6388365#5.9 -6388365#5.194 -6388365#5.195 -415882499#1 -415882499#1.7 -415882499#1.89 -415882499#0 -195433868#9 -195433868#8 -195433868#8.3 -195433868#8.84 24164451#5 24164451#5.8 24164451#5.10 24164451#5.192 -24314605#3 -24314605#2 -30909407#2 -422792872#3 -422792872#3.7 6333700#4 6333700#4.8 6333700#4.94 -24314605#0 -24314605#0.90 -24314605#0.93 -6346111#5 -6346111#5.2 -6346111#5.5 -6346111#5.6 -6346111#4 -6346111#4.91 -6346111#4.93 195433868#5 195433868#5.7 -6333700#2 -6333700#2.7 -6333700#2.9 -6336003#3 -6336003#3.7 -6336003#2 -6336003#2.56 -6336003#1 -6336003#1.9 -6336003#1.59 -6336003#1.73 -6336003#0 -6336003#0.64 -30832687#0 -30832687#0.21 -422929506 166409141#0 166409141#0.126 -6346111#0 -168627943#0 -24164436 -24164436.57 -24164436.115 -113629978#3 -113629978#3.7 -113629978#2 -113629978#2.67 6336821#1 6336821#2 6336821#3 6336821#3.34 6336821#4 -574396276#1 -574396276#0 -574396275 -24297044#11 -24297044#11.15 -24297044#11.132 6335796#2 6335796#2.8 -6392980 -6392980.91 6399617#1 6399617#1.7 6399617#1.18 6399617#1.29 6399617#1.64 6399617#1.73 6399617#1.81 -22372605#3 -22372605#2 -22372605#2.28 -22372605#2.31 -22372605#1 -22372605#0 -22372605#0.11 -422792870 -422792870.8 -422792870.23 -422792870.38 -422792870.77 -422792870.83 -422792870.100 -6376847#2 -6376847#2.8 -6376847#1 -6376847#0 -6376847#0.70 -24297044#1 6334712#0 6334712#0.8 6334712#0.99 6334712#1 6334712#1.7 6334712#1.194 233698097#5 233698097#5.46 233698097#6 233698097#6.6 233698097#6.121 233698097#7 233698097#7.11 233698097#8 6329575#3 6329575#3.8 6329575#3.92 -6344903#5 -6344903#5.7 -6344903#5.86 -6344903#4 -6344903#4.11 -6344903#4.126 6376847#6 6376847#6.6 -22372583#9 -22372583#8 -22372583#8.76 -6330089#4 -6330089#4.9 -6330089#4.96 -6330089#3 -6330089#3.6 -6330089#2 -6330089#2.46 -6330089#1 -6330089#1.7 -6330089#1.72 -6330089#1.138 -422792869#2 -422792869#2.6 -422792869#2.66 -422792869#2.70 -422792869#1 -422792869#1.18 772677033#6 772677033#6.8 772677033#6.194 -233698097#1 -233698097#1.6 -233698097#1.70 -22372604 -22372604.7 -22372604.194 22372606 22372606.6 22372606.13 22372606.20 -541341824 -541341824.8 -541341824.10 -541341824.25 541341325 -772677033#3 -772677033#2 27008007#8 27008007#9 27008007#9.69 24164443#2 24164443#2.10 24164443#2.28 24164443#2.137 24164443#2.139 22372609#1 22372609#1.1 22372609#1.3 22372609#1.5 22372609#2 22372609#2.2 22372609#2.4 22372609#2.6 22372609#2.9 22372609#3 22372609#3.1 22372609#3.3 22372609#3.5 22372608#0 22372608#0.3 22372608#0.6 22372608#0.12 22372608#0.174 22372608#0.175 188283694 188283694.28 188283693#0 188283693#0.8 188283693#1 188283693#2 188283693#3 188283693#4 593529469#0 593529469#1 593529469#2 593529470#0 593529470#0.32 593529470#1 593529470#2 593529470#2.30 164658209 195595366#0 195595366#0.3 195595366#1 195595366#1.17 195595366#1.69 195595366#4 195595366#5 195595366#6 195595366#7 195595366#8 195595366#8.11 195595366#8.14 30832948#0 30832948#0.8 30832948#0.16 30832948#1 30832948#2 30832948#2.14 30832948#3 7913793 7913793.8 7913793.258 168627943#4 168627943#5 168627943#6 168627943#6.3 168627943#6.47 168627943#6.62 168627943#6.119 7840628#1 7840628#1.7 6398141#2 6398141#2.93 -24164451#3 -24164451#3.6 -24164451#3.8 -24164451#3.104 -24164451#2 -24164451#2.59 -24164451#1 -24164451#1.7 -24164451#1.193 -24164451#0 24164453 24164453.10 24164453.23 32456680 32456680.2 -422947668 -422947668.11 -233686193 -233686193.8 -196750859#2 -196750859#1 -196750859#1.40 6378198#0 6378198#0.13 6378198#0.178 6378198#0.195 6378198#1 6378198#2 6378198#3 6378198#3.3 6378198#4 6378198#4.3 697544433#2 697544433#2.14 6351007#0 6351007#0.29 6351007#0.46 6351007#0.52 6351007#0.56 6351007#0.62 6351007#0.66 6351007#0.72 6351007#0.77 6351007#0.83 6351007#0.89 6351007#0.98 6351007#1 -6332167#0 -6332167#0.10 6386692#3 6386692#3.3 6386692#3.6 6386692#3.9 6338567#0 6338567#0.10 6338567#0.118 6338567#1 6338567#1.107 -6372673#0 -6372673#0.7 -6372673#0.15 -6372673#0.28 -6372673#0.42 -6372673#0.56 -6372673#0.76 -6372673#0.85 -6372673#0.95 -6372673#0.109 -6372673#0.123 -436204253#0 -436204253#0.23 -436204258 -436204258.24 -436204258.31 -436204258.38 -436204258.45 -436204258.52 -436204258.59 -185579357 -185579356#2 -185579356#2.10 -185579356#2.19 -185579356#2.27 -185579356#2.33 -185579356#1 -185579356#1.45 -185579356#0 -185579356#0.10 -185579356#0.16 -185579356#0.23 -185579356#0.31 -185579356#0.40 -185579356#0.49 -185579356#0.60 -185579356#0.108 -185579356#0.115 -185579356#0.122 -6346496#3 -6346496#3.7 -6346496#3.24 -6346496#2 -6346496#2.23 -6346496#1 -6346496#0 -6346496#0.31 -6346496#0.45 -6346496#0.55 -6346496#0.65 -6346496#0.81 -6346496#0.95 -6346496#0.121 -6346496#0.138 11152046#1 11152046#1.2 11152046#1.11 11152046#1.22 11152046#2 11152046#2.16 11152046#2.24 11152046#2.29 11152046#2.35 11152046#2.40 11152046#2.47 11152046#3 11152046#3.18 11152046#3.56 11152046#3.65 11152046#3.81 11152046#3.90 11152046#3.109 11152046#4 11152046#4.6 11152046#4.11 11152046#4.18 11152046#4.48 6374520#3 6374520#3.12 6374520#3.25 6374520#3.33 6374520#3.45 6374520#3.56 6374520#3.82 6358815#0 6358815#0.15 6358815#0.24 6358815#0.40 6358815#0.45 6358815#0.65 6358815#0.71 6358815#0.77 6358815#0.95 6358815#0.100 6358815#1 6358815#1.12 6358815#1.27 6358815#1.43 6358815#1.56 6358815#1.69 6358815#1.82 6358815#1.118 6358815#1.128 6358815#1.136 6358815#1.143 6358815#1.151 6358815#1.159 6358815#1.173 6358815#1.183 -193256686#16 -193256686#16.14 -193256686#16.26 -193256686#16.40 -193256686#16.54 -193256686#16.68 -193256686#16.103 -193256686#16.120 -193256686#15 -193256686#15.16 -193256686#15.31 -193256686#15.44 -193256686#15.66 -193256686#15.91 -193256686#15.106 -193256686#14 -193256686#14.15 -193256686#14.42 -193256686#14.52 -193256686#14.56 6371698#0 6371698#0.8 6371698#0.40 6371698#1 6371698#1.51 6371698#1.66 6341488#7 6341488#7.16 6341488#7.39 6341488#7.79 6341488#7.90 6369262#0 6369262#0.30 6369262#0.59 6369262#1 6369262#1.18 6369262#1.31 6369262#1.47 6369262#1.71 -190579762#6 -190579762#6.13 -190579762#6.17 -190579762#6.26 6369249 6369249.10 6369249.21 6369249.36 6369249.43 6369249.50 6369249.115 6369249.121 6369249.128 6369249.135 6369249.142 6369249.176 6369249.181 6339085#3 6339085#3.21 6339085#3.34 6339085#3.46 6339085#3.60 6339085#3.73 6339085#3.86 6339085#3.95 6339085#3.101 6339085#3.122 6339085#3.131 -6343160 -6343160.7 -6343160.32 -6343160.39 -6343160.47 -6343160.54 -6343160.64 -6343160.101 -6343160.109 -6343160.118 -6343160.126 -6343160.133 -6343160.143 -6343160.150 -6343160.163 -6343160.171 -6343160.179 -6343160.188 -6343160.195 -6343160.202 -6343160.210 -6343160.217 6338567#9 6338567#10 6339085#5 6339085#5.26 6339085#5.42 6339085#5.53 6335820 6335820.8 6335820.17 6335820.61 6335820.74 6335820.81 6335820.90 6335820.96 6335820.103 6335820.110 6335820.134 6335820.141 -6331171#1 -6331171#1.23 -6331171#1.39 -6331171#1.56 -6331171#1.78 6338567#12 30156401#0 -6333513#3 -6333513#3.137 -11043363#3 -11043363#3.7 -11043363#2 -11043363#1 -11043363#0 7857575#0 7857575#0.10 7857575#0.24 7857575#0.39 7857575#0.57 7857575#0.75 7857575#0.88 7857575#0.126 7857575#0.144 7857575#0.146 7857575#0.162 7857575#0.184 7857575#0.212 7857575#0.218 7857575#0.224 7857575#0.229 7857575#0.241 7857575#0.275 7857575#0.303 7857575#0.315 7857575#0.324 7857575#0.326 7857575#0.339 7857575#0.350 7857575#0.357 7857575#0.360 7857575#0.410 7857575#1 7857575#1.42 7857575#1.66 7857575#1.85"/>
</vehicle>
<vehicle id = "veh3" type= "veh_passenger" depart="3605" >
<route edges =" 797309093 797309091#0 797309091#0.10 797309091#1 797309091#1.7 797309091#2 797309091#2.10 797309091#2.15 797309091#3 377635148 377635148.3 377635148.5 377635149#0 377635149#0.19 377635149#0.28 377635149#0.40 377635149#0.54 377635149#1 377635149#1.77 6348380#2 6348380#2.74 6348380#2.87 6348380#2.97 6333080 6333080.6 -6346195#0 -6346195#0.5 -6346195#0.16 -6346195#0.24 -6346195#0.36 437142998 184924125#0 184924125#1 184924125#1.14 184924125#1.70 184924125#1.93 184924125#1.122 184924125#1.145 184924125#1.162 184924125#1.179 184924125#1.196 184924125#1.208 437142999#0 437142999#1 -437143007#2 -437143007#1 -437143007#1.3 -437143007#1.47 -437143007#1.70 -437143007#0 -785854260#6 -785854260#6.9 -785854260#6.66 -20625899 -20625899.13 -20625899.430 6344478 6344478.10 201989358#5 201989358#5.9 201989358#5.78 201989358#5.98 -37963097#2 -37963097#2.8 -37963097#0 -25966411 -25966411.228 -25966411.234 25966412#2 25966412#2.1 25966412#2.3 25966412#2.4 25966412#2.6 25966412#3 25966412#3.1 25966412#3.2 25966412#3.4 25966412#3.5 25966412#3.6 -770011482 -770011482.3 -770011482.12 -770011482.20 -770011482.29 -770011482.43 -770011482.57 -770011482.67 -770011482.80 -770011482.96 528122493#0 528122493#1 528122493#2 528122493#2.28 34361041#0 34361041#0.7 34361041#1 -195430724#15 -195430724#14 -195430724#14.20 -195430724#13 -195430724#13.78 -195430724#12 -195430724#12.8 -195430724#12.12 -195430724#11 -195430724#11.17 -164659478#5 -164659478#5.7 -164659478#4 -6362542#1 -6362542#1.7 -6362542#0 -6362542#0.104 168627934#0 168627934#0.97 -6360234#5 -6360234#5.7 -6360234#5.16 -6360234#4 -164659473#11 -164659473#10 -164659473#10.7 -164659473#9 -164659473#8 -164659473#8.12 -164659473#7 -164659473#7.13 -164659473#6 -164659473#6.16 -164659473#5 -164659473#5.13 -164659473#4 -164659473#3 -164659473#3.63 -25316538#3 -25316538#3.7 -25316538#2 -25316538#1 24024250#4 24024250#4.7 24024250#5 24024250#5.66 24024250#6 742663483#0 742663483#1 742663483#1.35 742663483#1.56 742663483#1.77 742663483#1.84 742663483#2 415878804#0 415878804#1 415878803#0 415878803#1 541334900#0 541334900#1 541334900#2 541334900#3 541334900#4 541334900#5 541334900#6 541334900#7 541334900#8 -6371277 -6371277.7 -6371277.92 27877606#6 27877606#7 27877606#7.53 6348015 6348015.7 761330890 761330889#0 761330889#1 761330889#2 761330889#3 761330889#3.83 761330889#4 517593873#2 517593873#2.29 517593873#3 415876778 196779219#0 196779219#1 196779219#2 196779219#3 30833030#0 30833030#1 30833030#1.19 196779231#0 196779231#0.12 196779231#1 196779231#1.17 21452694#0 21452694#0.5 21452694#0.7 21452694#0.9 21452694#0.14 21452694#0.21 21452694#0.27 21452694#0.101 21452694#1 21452694#1.9 21452694#1.14 21452694#1.27 21452694#2 415878130#0 415878130#1 415878131#0 415878131#1 682209186 196779232 196779232.9 415878126 415878126.6 415878137#0 415878137#1 22372598#1 22372598#2 22372598#3 -6391592#1 -6391592#1.7 -6391592#0 -6391592#0.14 781008559#0 781008559#1 781008559#2 781008559#3 202177316#0 202177316#1 202177316#2 415878127 415878127.3 415878136#0 415878136#1 415876789 195433872 -168627978#4 -168627978#3 -168627978#2 -168627978#1 -168627978#1.20 -168627978#0 -168627978#0.13 -168627978#0.22 -168627978#0.59 -168627978#0.79 -168627978#0.98 -168627978#0.113 -168627978#0.142 -168627975 -168627975.12 -168627975.22 -168627975.32 -168627975.40 22273558 22273558.11 22273558.17 22273558.33 22273558.45 22273558.58 22273558.66 22273558.77 22273558.85 22273558.92 22273558.103 22273558.113 22273558.118 -7990899#2 -7990899#2.27 -7990899#1 -7990899#0 -7990899#0.77 -363370637#7 -363370637#7.92 -363370637#6 -363370637#6.7 -363370637#5 -363370637#4 -363370637#3 -363370637#2 -164658213#5 -164658213#5.7 -164658213#4 -164658213#4.36 -32618074#3 -32618074#2 -32618074#1 -32618074#0 415884014#0 415884014#1 574404431 32618073 32618073.10 32618073.17 6339825 6339825.19 6339825.33 166510702#0 166510702#1 166510702#1.13 166510702#2 166510702#2.1 415884025#0 415884025#0.17 415884025#1 32456227#3 32456227#4 32456227#5 32456227#6 32456227#7 32456227#8 32618072#0 32618072#1 32618072#2 32618072#2.44 -36985595#2 -36985595#2.8 -36985595#2.116 -36985595#2.205 -36985595#1 -36985595#0 -36985594 -22278229#3 -22278229#2 -22278229#1 -22278229#0 -22278229#0.17 -22278228 -22278228.7 -22278228.63 22278226 22278226.10 22278226.56 22278227#0 541337642 541337642.7 -6375690 -6375690.18 -6375690.45 -6375690.64 -6375690.85 -6375690.105 -6375690.129 -6375690.151 -6375690.165 -6327827#1 -6327827#1.7 -6327827#0 -6327827#0.170 541338171#0 541338171#1 541338171#1.7 541338171#1.52 541338171#1.99 541338171#1.141 -189843769 -189843769.9 -189843769.16 -189843769.21 -189843769.40 -189843769.53 -189843769.65 -189843769.81 -189843769.92 -189843769.102 -189843769.112 -189843769.128 -189843769.138 -189843769.147 -189843769.158 -189843769.175 -189843769.191 -189843769.207 -189843769.220 -189843769.234 -189843769.257 -189843769.278 -189843769.293 -189843769.305 -189843769.317 -189843769.329 -189843769.366 -189843768 -189843768.9 -6372673#1 -6372673#1.8 -6372673#1.20 6338567#2 6338567#3 6338567#3.80 11154779#9 11154779#9.12 11154779#9.34 11154779#9.73 11154779#9.89 11154779#9.122 11154779#9.137 11154779#9.139 -694455409#1 -694455409#1.21 -694455409#0 -694455409#0.15 -694455409#0.26 -694455409#0.37 -694455409#0.48 -694455409#0.58 -694455409#0.68 -694455409#0.104 -694455409#0.109 -694455409#0.119 6338567#5 6338567#5.8 6338567#6 6338567#7 6338567#7.90 6338567#8 6338567#8.11 6343160 6343160.7 6343160.14 6343160.22 6343160.28 6343160.36 6343160.45 6343160.53 6343160.61 6343160.74 6343160.81 6343160.91 6343160.98 6343160.106 6343160.115 6343160.123 6343160.160 6343160.170 6343160.177 6343160.185 6343160.191 6343160.217 -6339085#3 -6339085#3.11 -6339085#3.19 -6339085#3.40 -6339085#3.47 -6339085#3.56 -6339085#3.68 -6339085#3.81 -6339085#3.95 -6339085#3.107 -6339085#3.120 -6339085#2 -6339085#2.14 -6339085#2.26 -6339085#2.37 -6339085#2.49 -6339085#2.63 -6339085#2.115 -6339085#2.125 -6339085#2.140 -6339085#1 -6339085#0 -6339085#0.12 -6339085#0.27 -6339085#0.45 -6339085#0.77 -6339085#0.87 -6339085#0.98 -6339085#0.119 -6339085#0.129 -190579779#0 -190579779#0.109 -190579779#0.117 6333513#0 6333513#0.10 6333513#0.40 6333513#0.51 6333513#0.62 6333513#0.73 6407689#0 6407689#1 6407689#1.22 6407689#1.35 6407689#1.53 6407689#1.68 6407689#1.82 -6352134#2 -6352134#2.15 -6352134#2.29 -6352134#2.47 -6352134#2.62 -6352134#2.110 -6352134#1 -6352134#0 -6352134#0.20 -6352134#0.39 -6352134#0.53 -6352134#0.63 -6352134#0.79 -11043364#1 -11043364#0 -11043364#0.73 -11043364#0.81 -7857575#1 -7857575#1.27 -7857575#1.57 -7857575#1.75 -7857575#1.83 -7857575#1.99 -7857575#1.115 -7857575#1.152 -7857575#1.166 -7857575#1.179 -7857575#1.219 -7857575#1.229 -7857575#1.268 -7857575#1.290 -7857575#1.315 -7857575#1.332 -7857575#1.343 -7857575#1.361 -7857575#1.378 -7857575#1.390 -7857575#1.402 -7857575#1.416 -7857575#1.443 -7857575#1.452 -7857575#1.462"/>
</vehicle>
<vehicle id = "veh4" type= "veh_passenger" depart="7210" >
<route edges =" -316633577#1 -316633577#0 -6340080#2 -6340080#1 -6340080#0 -6340080#0.27 -201989373 -201989373.4 -201989373.9 -201989373.42 -201989355#2 -201989355#2.8 -201989355#2.38 -201989355#1 -201989355#0 -5149904#1 -5149904#1.7 -5149904#0 -5149904#0.2 -34361024#1 -34361024#0 -34361024#0.80 -188703042#5 -188703042#4 -188703042#4.59 -188703042#3 -188703042#3.6 -188703042#3.24 6347955 6347955.193 -24620691#2 -24620691#1 -6338310#3 -6338310#3.7 -6338310#2 -6338310#2.89 -188703042#0 -188703042#0.9 -188703042#0.21 -188703049 -201989352#2 -201989352#2.8 -201989352#1 -201989352#1.9 -201989352#1.29 -201989352#0 -34361041#1 -34361041#0 -34361041#0.92 -528122494 -528122494.9 -164659477#8 -164659477#8.7 -6362542#2 -6362542#2.12 -6362542#2.19 -6362542#2.179 164659478#4 -6360234#6 -6360234#6.186 -6360234#6.194 -6360234#5 -6360234#5.7 -6360234#5.16 -6360234#4 -164659473#11 -164659473#10 -164659473#10.7 7783131#3 7783131#4 7783131#4.171 -34811472#9 -34811472#9.6 -34811472#9.49 -34811472#8 -34811472#7 -34811472#6 -202317716#4 -202317716#3 -202317716#3.20 -202317716#3.88 -164659481#5 -164659481#5.12 -164659481#5.14 -164659481#4 -25316538#6 -25316538#6.7 -25316538#6.93 -34811472#3 -34811472#3.7 -34811472#3.66 -34811472#3.122 -34811472#3.194 -34811472#2 -34811472#2.8 -34811472#2.70 -34811472#2.135 -34811472#2.192 -24024251#2 -24024251#2.7 -910274653#0 -930646447 201989375#0 201989375#1 930646453#0 930646453#0.20 930646453#1 930646453#2 930646453#2.11 930646453#2.12 415876806#0 415876806#1 -910274659 -172616533#5 -172616533#5.4 -172616533#5.9 -172616533#4 -172616533#3 -172616533#3.33 -172616533#2 -172616533#1 -172616533#0 -172616533#0.14 32456661#4 32456661#4.8 32456661#4.92 32456661#5 -6332538#6 -6332538#6.8 -6332538#6.187 -6332538#6.190 -201989365#9 -201989365#9.8 -201989365#9.22 -201989365#9.93 -6384487#12 -6384487#12.10 -6384487#12.12 -6384487#12.149 -26379345#11 -26379345#11.7 -26379345#11.92 25968350#2 25968350#2.9 25968350#2.151 25968350#3 -201989365#5 -201989365#4 -201989365#4.4 -201989365#4.16 -201989365#4.82 -201989365#3 -201989365#3.8 -201989365#3.73 -201989365#3.91 -201989365#2 -201989365#2.8 -201989365#2.25 -201989365#2.92 -201989365#1 -201989365#1.10 -201989365#0 -415876797#1 -415876797#1.5 -415876797#0 -415876793#1 -415876793#0 -415876793#0.17 -201989366 -937946572#1 -937946572#0 -43050009#1 -43050009#1.55 -43050009#0 -27877609#1 -27877609#0 -541351345 -541351345.66 28076018 28076018.6 28076018.8 28076018.173 28076018.194 -999534620#30 -999534620#30.43 -999534620#30.86 -999534620#30.91 -999534620#29 -999534620#29.10 -999534620#28 -999534620#28.82 -999534620#28.85 -999534620#27 -999534620#27.6 -999534620#26 -999534620#26.51 -999534620#26.67 -999534620#26.74 -190017519 -190017519.7 25968341 25968341.18 25968341.56 -999534620#24 -999534620#24.3 -999534620#23 -999534620#23.52 -999534620#23.73 -999534620#22 415870533#0 415870533#1 415870533#1.183 415870533#1.187 164659441#2 164659441#2.7 164659441#2.9 -6356133#2 -6356133#2.8 -6356133#2.193 -6356133#1 -6356133#1.9 -6356133#0 -7773729#7 -7773729#6 415870533#6 415870533#7 415870533#7.17 415870533#7.70 415870533#7.162 415870533#7.211 415870533#8 415870533#8.6 415870533#9 415870525#0 415870525#0.13 415870525#1 415870525#2 22370937#0 22370937#1 22370937#2 22370937#3 22370937#3.6 22370937#4 22370937#4.6 22370937#5 22370937#5.11 22370937#6 22370937#7 415870519#0 415870519#1 415870531#0 415870531#1 415870531#1.26 415870531#2 22370936#0 22370936#0.7 22370936#0.14 -6353149 -1014203284#1 -1014203284#0 -1014203284#0.1 415870529#0 415870529#1 415870529#1.19 415870529#2 415803769#0 415803769#1 195433868#0 195433868#1 195433868#1.5 195433868#1.19 195433868#2 195433868#2.85 -30832687#1 -30832687#1.7 -30832687#1.9 -30832687#0 -30832687#0.21 -422929506 -7841699 -7841699.28 -7841699.73 -7841699.105 -24164436 -24164436.57 -24164436.115 -113629978#3 -113629978#3.7 -113629978#2 -113629978#2.67 -113629978#1 -113629978#1.7 -113629978#1.212 6335796#1 6335796#1.6 6335796#1.88 6335796#2 6335796#2.8 -6392980 -6392980.91 6399617#1 6399617#1.7 6399617#1.18 6399617#1.29 6399617#1.64 6399617#1.73 6399617#1.81 -22372605#3 -22372605#2 -22372605#2.28 -22372605#2.31 -22372605#1 -22372605#0 -22372605#0.11 -422792870 -422792870.8 -422792870.23 -422792870.38 -422792870.77 -422792870.83 -422792870.100 6376847#3 6376847#3.7 6376847#3.9 6376847#4 6376847#4.98 6376847#5 6376847#5.6 6376847#6 6376847#6.6 6376847#7 6376847#7.121 193991030#3 193991030#3.1 193991030#3.3 193991030#3.5 193991030#3.6 -23874083#1 -23874083#1.2 -23874083#0 -23874083#0.71 -189843767#0 -189843767#0.120 -6330089#4 -6330089#4.9 -6330089#4.96 -6344903#2 -6344903#2.7 -6344903#1 -6344903#0 -6344903#0.20 867654315 203193436#0 203193436#0.38 233698097#0 233698097#0.6 233698097#0.8 233698097#1 233698097#1.6 233698097#1.70 233698097#2 233698097#2.69 -22372608#2 -22372608#2.7 422792869#2 422792869#2.5 422792869#2.9 422792869#2.69 422792869#3 422792869#3.70 -6334712#0 -6334712#0.8 -6334712#0.99 24297044#1 24297044#2 24297044#3 24297044#4 24297044#5 24297044#6 24297044#6.3 24297044#6.9 24297044#6.15 24297044#7 24297044#8 -24297035#3 -24297035#2 -24297035#2.48 593529470#1 -6335787#1 -6335787#1.7 -6335787#1.16 -6335787#1.80 21485403#7 21485403#7.7 21485403#7.65 195595366#0 195595366#0.3 -6338840#2 -6338840#2.8 -6338840#2.10 -6338840#2.17 -6338840#2.26 -6338840#2.58 -6338840#2.75 -6338840#2.100 -6338840#2.124 -6338840#1 6404744 6404744.18 6404744.53 6404744.58 6404744.65 6404744.71 6404744.77 6404744.95 6404744.109 6404744.121 195595366#7 195595366#8 195595366#8.11 195595366#8.14 6344917#0 6344917#0.8 6344917#0.18 6344917#0.21 6344917#0.33 6344917#1 6344917#1.13 6344917#1.26 6344917#2 6344917#3 6344917#3.16 6344917#3.35 6344917#3.69 6344917#3.86 6344917#3.102 6344917#3.117 6344917#3.134 6344917#3.174 6344917#3.192 6344917#3.212 6344917#3.232 7913800#1 7913800#1.15 7913800#1.27 7913800#1.41 7913795#0 7913795#0.14 7913795#0.30 541338972#1 541338972#2 541338972#2.7 541338972#2.27 422947664 422947664.16 422947664.30 422947669#0 422947669#0.14 422947669#0.156 30832716#1 30832716#1.7 30832716#2 30832716#2.91 30832716#2.97 30832716#2.104 6339425 6339425.100 6339425.108 6339425.118 6339425.128 -30832948#5 -30832948#5.20 -30832948#5.71 7913793 7913793.8 7913793.258 168627943#4 6333700#0 6333700#0.7 6333700#0.76 6333700#0.90 6333700#0.101 6333700#0.114 6333700#0.130 6333700#0.186 6333700#0.188 -6398141#0 -6398141#0.8 -6398141#0.10 -6398141#0.51 -6398141#0.78 -6398141#0.167 6346111#2 6346111#3 6346111#3.91 6346111#3.92 6346111#4 6346111#4.7 6346111#4.9 -422792872#1 -422792872#1.191 30832687#3 30832687#3.91 30832687#4 30832687#4.8 22370936#2 22370936#2.9 22370936#3 -30909407#3 -30909407#2 -422792872#3 -422792872#3.7 -6333700#3 -6333700#3.6 -6333700#3.89 -6333700#3.91 195433868#6 195433868#6.6 -7840628#2 -7840628#2.8 6398141#2 6398141#2.93 24164451#4 24164451#4.7 24164451#4.9 24164451#4.192 24164451#4.194 24164451#5 24164451#5.8 24164451#5.10 24164451#5.192 24314605#4 24314605#4.91 24314605#4.93 363370643#1 363370643#1.7 363370643#1.22 363370643#1.93 22370936#6 22370936#6.7 22370936#6.13 22370936#6.194 22370936#6.195 -23089173#2 -23089173#2.6 -23089173#2.28 -23089173#2.39 -23089173#2.51 -23089173#2.57 -23089173#2.90 -23089173#2.93 24314605#7 24314605#7.8 24314605#8 24314605#9 24314605#10 24314605#10.26 24314605#10.28 24314605#10.30 202485372#0 202485372#0.7 202485372#0.46 202485372#1 -6390755#2 -6390755#2.7 -6390755#2.9 -6390755#1 -6390755#0 -6390755#0.19 -6390755#0.104 -6390755#0.106 -23089173#0 -23089173#0.4 -23089173#0.22 -23089173#0.31 -23089173#0.41 -23089173#0.49 -23089173#0.55 -23089173#0.93 -23089173#0.95 415882499#3 415882499#3.5 -6339837#6 -6339837#6.7 -6339837#5 -6339837#5.94 -6398141#6 -6398141#6.6 -6398141#6.93 -22277720#3 -22277720#3.7 -22277720#3.194 -32456218#2 -32456218#2.7 -32456218#2.93 -6388365#1 -6388365#1.7 -6388365#1.193 -6388365#0 -6388365#0.7 -6388365#0.178 -6388365#0.190 -6388365#0.204 -6388365#0.217 -6356111#0 -6356111#0.89 -415884035#1 -415884035#0 -195595386#2 -195595386#2.4 -195595386#1 -195595386#1.5 -195595386#0 -460683946#1 -460683946#0 -415884036 -415884036.2 -417526452 -417526452.5 -417526452.27 -417526430 -196750859#2 -196750859#1 -196750859#1.40 6378198#0 6378198#0.13 6378198#0.178 6378198#0.195 6378198#1 6378198#2 6378198#3 6378198#3.3 6378198#4 6378198#4.3 697544433#2 697544433#2.14 6351007#0 6351007#0.29 6351007#0.46 6351007#0.52 6351007#0.56 6351007#0.62 6351007#0.66 6351007#0.72 6351007#0.77 6351007#0.83 6351007#0.89 6351007#0.98 6351007#1 6332167#1 6332167#1.41 6332167#1.56 6332167#1.75 6332167#1.96 6332167#1.109 6332167#1.124 6332167#1.145 6332167#1.164 541338171#0 541338171#1 541338171#1.7 541338171#1.52 541338171#1.99 541338171#1.141 -189843769 -189843769.9 -189843769.16 -189843769.21 -189843769.40 -189843769.53 -189843769.65 -189843769.81 -189843769.92 -189843769.102 -189843769.112 -189843769.128 -189843769.138 -189843769.147 -189843769.158 -189843769.175 -189843769.191 -189843769.207 -189843769.220 -189843769.234 -189843769.257 -189843769.278 -189843769.293 -189843769.305 -189843769.317 -189843769.329 -189843769.366 -189843768 -189843768.9 -6372673#1 -6372673#1.8 -6372673#1.20 6338567#2 6384655 6384655.5 6384655.17 6384655.30 6384655.48 6384655.61 6384655.78 6384655.94 6384655.110 6384655.135 6384655.156 6384655.172 6384655.189 6384655.204 6384655.214 6384655.225 6384655.233 6384655.237 694455409#4 694455409#4.22 6402116#0 6402116#0.7 6402116#0.10 6402116#0.16 6402116#0.20 6402116#0.54 6402116#0.162 6402116#0.179 6402116#0.194 6402116#0.209 6402116#0.228 6402116#0.245 6402116#0.264 6402116#0.286 6402116#0.307 6402116#0.326 6402116#0.377 6402116#0.411 6402116#0.433 -190579762#17 -190579762#17.47 -6341488#15 -6341488#15.10 -6341488#15.23 -6341488#15.36 -6341488#15.49 -6341488#15.61 -6341488#15.73 -6341488#15.84 -6341488#15.97 -6341488#15.111 -6341488#15.124 -6341488#15.136 -6341488#15.150 -6341488#15.163 -6341488#15.179 -6341488#15.229 -6341488#15.241 -6341488#14 -6341488#14.8 -6341488#14.20 -6341488#14.36 -6341488#14.51 -6341488#14.67 -6341488#14.105 -6341488#14.115 -6341488#14.127 -6341488#13 -6341488#13.6 -6341488#13.35 -6341488#13.61 -6341488#13.81 -6341488#13.101 -6341488#13.124 -6341488#13.176 -6341488#12 -6341488#12.15 -6341488#12.26 -6341488#12.42 -6341488#12.55 -6341488#12.74 6336095#1 6336095#1.21 6336095#1.30 6336095#1.42 6336095#1.55 6336095#1.84 6338567#7 6338567#7.90 6338567#8 6338567#8.11 6338567#9 6338567#10 6338567#11 6338567#12 30156401#0 -6333513#3 -6333513#3.137 -11043363#3 -11043363#3.7 -11043363#2 -11043363#1 -11043363#0 7857575#0 7857575#0.10 7857575#0.24 7857575#0.39 7857575#0.57 7857575#0.75 7857575#0.88 7857575#0.126 7857575#0.144 7857575#0.146 7857575#0.162 7857575#0.184 7857575#0.212 7857575#0.218 7857575#0.224 7857575#0.229 7857575#0.241 7857575#0.275 7857575#0.303 7857575#0.315 7857575#0.324 7857575#0.326 7857575#0.339 7857575#0.350 7857575#0.357 7857575#0.360 7857575#0.410 7857575#1 7857575#1.42 7857575#1.66 7857575#1.85"/>
</vehicle>
<vehicle id = "veh5" type= "veh_passenger" depart="7210" >
<route edges =" 797309093 797309091#0 797309091#0.10 797309091#1 797309091#1.7 797309091#2 797309091#2.10 797309091#2.15 797309091#3 377635148 377635148.3 377635148.5 -437142992 -437142992.6 -6329160 -6329160.124 -6329160.133 785854260#3 785854260#3.11 785854260#3.30 785854260#4 785854260#4.14 785854260#4.73 785854260#5 785854260#6 785854260#6.20 785854260#6.77 785854260#7 785854260#8 785854260#8.8 785854260#8.45 -164659487 -164659487.11 -164659487.36 -164659487.49 -164659487.62 -164659487.77 -164659487.195 -164659487.212 -164659487.230 -164659487.246 164659503#2 164659503#2.0 164659503#2.1 164659503#2.2 164659503#2.3 164659503#2.4 164659503#2.5 164659503#2.6 164659503#2.7 164659503#2.8 164659503#2.9 164659503#2.10 164659503#2.11 -37963097#4 -37963097#4.3 -37963097#3 -37963097#3.82 -201989358#5 -201989358#5.8 -201989358#5.28 -201989358#5.97 -201989358#4 -201989358#4.8 -201989358#4.92 -201989358#4.97 25340020 25340020.6 25340020.17 24620689#0 24620689#0.6 24620689#1 24620689#1.9 -201989358#2 -201989358#2.18 -25340074 -25340074.8 -25340074.86 -34361042 -34361042.8 -34361042.97 34361041#0 34361041#0.7 34361041#1 -195430724#15 -195430724#14 -195430724#14.20 -195430724#13 -195430724#13.78 10585275#1 10585275#1.9 10585275#2 -6357225 -6357225.7 -6332541#0 -6332541#0.83 -164659478#5 -164659478#5.7 -164659478#4 -6362542#1 -6362542#1.7 -6362542#0 -6362542#0.104 -34811472#12 -34811472#12.8 -34811472#11 -34811472#10 -7783131#4 -7783131#4.7 -7783131#3 -164659473#9 -164659473#8 -164659473#8.12 -164659473#7 -164659473#7.13 -164659473#6 -164659473#6.16 202317716#13 202317716#13.7 202317716#14 -24024250#6 -24024250#5 -24024250#5.8 -24024250#4 -24024250#4.80 -25316538#0 21455622#0 21455622#0.7 21455622#1 196779227#0 196779227#0.7 196779227#1 196779227#2 196779227#3 541335063#0 541335063#1 541335063#2 196779228#0 196779228#1 196779228#2 196779228#3 196779228#4 196779228#5 196779228#6 196779228#6.35 7783135#0 7783135#0.7 7783135#1 7783135#2 7783135#2.38 164659473#11 -6360234#3 -6360234#2 -6360234#1 -6360234#0 -6360234#0.31 416106321#3 416106320#0 416106320#1 -698994081#5 -698994081#4 -698994081#3 -698994081#2 -698994081#1 -698994081#0 6333764#0 6333764#1 6333764#1.11 6333764#2 6333764#3 6333764#4 6333764#5 6333764#6 6333764#6.55 -6345181#7 -6345181#7.7 -6345181#7.92 -541335494#3 -541335494#3.6 -541335494#3.15 -541335494#2 -541335494#1 -541335494#0 -698994093#10 -698994093#9 -698994093#8 -698994093#8.7 -698994093#7 -698994093#7.11 -698994093#6 -698994093#5 -698994093#5.50 -698994093#4 -698994093#4.7 -698994093#3 -698994093#2 -698994093#1 -698994093#0 -698994093#0.12 -698994093#0.22 6348015 6348015.7 761330890 761330889#0 761330889#1 761330889#2 761330889#3 761330889#3.83 761330889#4 517593873#2 517593873#2.29 517593873#3 415876778 22278225#0 22278225#0.24 22278225#1 22278225#1.6 22278225#1.16 22278225#1.26 196779231#0 196779231#0.12 196779231#1 196779231#1.17 21452694#0 21452694#0.5 21452694#0.7 21452694#0.9 21452694#0.14 21452694#0.21 21452694#0.27 21452694#0.101 21452694#1 21452694#1.9 21452694#1.14 21452694#1.27 21452694#2 415878130#0 415878130#1 415878131#0 415878131#1 682209186 196779232 196779232.9 415878126 415878126.6 415878137#0 415878137#1 22372598#1 22372598#2 22372598#3 -6391592#1 -6391592#1.7 -6391592#0 -6391592#0.14 781008559#0 781008559#1 781008559#2 781008559#3 202177316#0 202177316#1 202177316#2 415878127 415878127.3 415878136#0 415878136#1 415876789 195433872 958717203 903957347 903957347.10 903957346#0 903957346#0.5 903957346#1 903957346#1.14 415876791 415876791.6 415876791.11 415876791.19 415876791.38 6365504#0 6365504#0.12 6365504#0.17 6365504#0.22 6365504#1 6365504#1.47 6365504#2 -23089174 23089172#0 23089172#0.2 23089172#0.23 23089172#0.47 23089172#0.53 23089172#1 23089172#1.5 23089172#2 23089172#2.5 23089172#2.12 23089172#2.16 23089172#3 23089172#4 23089172#5 23089172#5.27 23089172#6 23089172#6.7 23089172#7 23089172#8 23089172#9 23089172#9.47 -227756442#0 -227756442#0.6 184891171 184891171.8 184891171.14 -184891177 -184891166 -22273567#2 -22273567#2.26 -6365504#8 -6365504#8.5 -6365504#7 -6365504#6 -6365504#6.53 -6400775#27 -6400775#27.6 -6400775#26 -6400775#26.2 -6400775#26.21 -6400775#25 -6400775#25.7 -6400775#25.85 -6400775#25.87 -6341088#1 -6341088#1.6 -6341088#1.171 6339579#1 6339579#1.6 6339579#1.8 6339579#2 6339579#2.15 -22275208#0 -22275208#0.9 -22275208#0.117 -22275208#0.123 -22275208#0.126 -168627917 -22273558 -22273558.9 -22273558.13 -22273558.24 -22273558.35 -22273558.42 -22273558.50 -22273558.60 -22273558.68 -22273558.82 -22273558.94 -22273558.110 -22273558.116 168627975 168627975.5 168627975.13 168627975.23 168627975.33 -24314605#16 -24314605#16.7 -24314605#16.11 -24314605#16.83 -24314605#16.86 -24314605#15 -24314605#15.6 -24314605#15.8 -164658213#7 -164658213#6 -164658213#6.156 363370637#2 363370637#3 -21452801#8 -21452801#7 -21452801#6 -21452801#5 -21452801#5.63 -21452801#5.66 -21452801#4 -21452801#3 -21452801#2 -21452801#1 -21452801#1.22 -21452801#1.26 -21452801#0 -36985599#3 -36985599#2 -36985599#2.120 -36985599#2.132 -36985599#2.140 -36985599#2.155 -36985599#2.166 -36985599#1 -36985599#1.11 -36985599#1.17 -36985599#0 -36985598 -6372698#3 -6372698#3.4 -6372698#2 -6372698#2.9 -6372698#2.152 -22277719#7 -22277719#7.7 -22277719#7.92 -618189913#0 -618189913#0.6 -618189913#0.24 -618189913#0.90 -618189913#0.190 -618189913#0.204 -618189913#0.219 -618189913#0.231 -694455409#6 -694455409#6.8 -694455409#6.11 -694455409#6.20 -694455409#6.38 -694455409#5 -694455409#5.10 -694455409#5.23 -694455409#5.42 -694455409#5.118 -694455409#4 -694455409#4.29 -694455409#3 -694455409#3.4 -694455409#3.6 -694455409#3.10 -694455409#3.32 -694455409#3.62 -694455409#3.77 -694455409#3.89 -11154779#9 -11154779#9.12 -11154779#9.13 -11154779#9.29 -11154779#9.62 -11154779#9.78 -11154779#9.117 -11154779#9.139 -11154779#8 -11154779#8.6 -11154779#8.12 -11154779#7 -11154779#7.111 -11154779#7.164 -11154779#7.242 -11154779#7.257 -11154779#7.274 -11154779#7.289 -11154779#7.297 -11154779#7.309 -11154779#7.321 -11154779#7.330 -11154779#7.340 -11154779#7.353 -11154779#7.367 -11154779#7.381 -11154779#7.397 -11154779#7.422 6358815#1 6358815#1.12 6358815#1.27 6358815#1.43 6358815#1.56 6358815#1.69 6358815#1.82 6358815#1.118 6358815#1.128 6358815#1.136 6358815#1.143 6358815#1.151 6358815#1.159 6358815#1.173 6358815#1.183 -193256686#16 -193256686#16.14 -193256686#16.26 -193256686#16.40 -193256686#16.54 -193256686#16.68 -193256686#16.103 -193256686#16.120 -193256686#15 -193256686#15.16 -193256686#15.31 -193256686#15.44 -193256686#15.66 -193256686#15.91 -193256686#15.106 -193256686#14 -193256686#14.15 -193256686#14.42 -193256686#14.52 -193256686#14.56 6371698#0 6371698#0.8 6371698#0.40 6371698#1 6371698#1.51 6371698#1.66 -6341488#6 -6341488#5 -6341488#5.27 -6341488#5.44 -6341488#5.62 -6341488#5.81 -6341488#5.125 -6341488#5.146 -6341488#5.159 -6341488#5.173 -6341488#5.186 -6341488#5.210 -6341488#5.226 -6341488#4 -6341488#4.10 -6341488#4.17 -6341488#4.26 6359553 6359553.20 6359553.30 6359553.40 6359553.50 6359553.61 6359553.103 6359553.114 6359553.123 6359553.148 -190579762#1 -190579762#1.18 -190579762#1.34 -190579762#1.48 -190579762#1.61 -190579762#1.72 -190579762#0 -190579762#0.9 -190579762#0.20 -190579762#0.30 -190579762#0.41 -190579762#0.48 -190579762#0.50 -6400759 -6400759.10 -6400759.12 190579817#0 190579817#0.11 190579817#1 190579817#1.5 190579817#1.14 190579817#1.25 190579817#1.37 190579817#1.55 190579817#1.68 6333513#0 6333513#0.10 6333513#0.40 6333513#0.51 6333513#0.62 6333513#0.73 6407689#0 -11043364#4 -11043364#3 -11043364#2 -11043364#1 -11043364#0 -11043364#0.73 -11043364#0.81 -7857575#1 -7857575#1.27 -7857575#1.57 -7857575#1.75 -7857575#1.83 -7857575#1.99 -7857575#1.115 -7857575#1.152 -7857575#1.166 -7857575#1.179 -7857575#1.219 -7857575#1.229 -7857575#1.268 -7857575#1.290 -7857575#1.315 -7857575#1.332 -7857575#1.343 -7857575#1.361 -7857575#1.378 -7857575#1.390 -7857575#1.402 -7857575#1.416 -7857575#1.443 -7857575#1.452 -7857575#1.462"/>
</vehicle>
<vehicle id = "veh6" type= "veh_passenger" depart="10815" >
<route edges =" 797309093 797309091#0 797309091#0.10 797309091#1 797309091#1.7 797309091#2 797309091#2.10 797309091#2.15 797309091#3 377635148 377635148.3 377635148.5 377635149#0 377635149#0.19 377635149#0.28 377635149#0.40 377635149#0.54 -437142996 -437142996.8 -437142997 -437142997.7 -437142997.19 -437142997.28 -437142995 -6336839 -6336839.8 -6336839.22 -6336839.37 -6336839.47 -6336839.56 -6336839.71 -6336843 -6336843.11 -6336843.20 -6336843.52 785854260#5 785854260#6 785854260#6.20 785854260#6.77 785854260#7 785854260#8 785854260#8.8 785854260#8.45 -164659487 -164659487.11 -164659487.36 -164659487.49 -164659487.62 -164659487.77 -164659487.195 -164659487.212 -164659487.230 -164659487.246 164659503#2 164659503#2.0 164659503#2.1 164659503#2.2 164659503#2.3 164659503#2.4 164659503#2.5 164659503#2.6 164659503#2.7 164659503#2.8 164659503#2.9 164659503#2.10 164659503#2.11 -37963097#4 -37963097#4.3 -37963097#3 -37963097#3.82 -37963097#2 -37963097#2.8 -759762166 759762167 759762167.1 -34361042 -34361042.8 -34361042.97 34361041#0 34361041#0.7 34361041#1 -195430724#15 -195430724#14 -195430724#14.20 -195430724#13 -195430724#13.78 -195430724#12 -195430724#12.8 -195430724#12.12 -195430724#11 -195430724#11.17 -164659478#5 -164659478#5.7 -6360234#6 -6360234#6.186 -6360234#6.194 -6360234#5 -6360234#5.7 -6360234#5.16 -6360234#4 -164659473#11 -7783135#2 -7783135#2.7 -7783135#1 -7783135#0 -7783135#0.101 43256415 43256415.22 -6345181#8 -6345181#8.4 -6345181#8.7 -6345181#8.93 -6345181#7 -6345181#7.7 -6345181#7.92 -541335494#3 -541335494#3.6 -541335494#3.15 -541335494#2 -541335494#1 -541335494#0 -698994093#10 -698994093#9 -698994093#8 -698994093#8.7 -698994093#7 -698994093#7.11 -698994093#6 -698994093#5 -698994093#5.50 -698994093#4 -698994093#4.7 -698994093#3 -698994093#2 -698994093#1 -698994093#0 -698994093#0.12 -698994093#0.22 6348015 6348015.7 761330890 761330889#0 761330889#1 761330889#2 761330889#3 761330889#3.83 761330889#4 517593873#2 517593873#2.29 517593873#3 415876778 196779219#0 196779219#1 196779219#2 196779219#3 30833030#0 30833030#1 30833030#1.19 196779231#0 196779231#0.12 196779231#1 196779231#1.17 21452694#0 21452694#0.5 21452694#0.7 21452694#0.9 21452694#0.14 21452694#0.21 21452694#0.27 21452694#0.101 21452694#1 21452694#1.9 21452694#1.14 21452694#1.27 21452694#2 415878130#0 415878130#1 415878131#0 415878131#1 682209186 196779232 196779232.9 415878126 415878126.6 415878137#0 415878137#1 22372598#1 22372598#2 22372598#3 -6391592#1 -6391592#1.7 -6391592#0 -6391592#0.14 781008559#0 781008559#1 781008559#2 781008559#3 202177316#0 202177316#1 202177316#2 415878127 415878127.3 415878136#0 415878136#1 -415876790#1 -415876790#0 -756453993 -559526390 -559526390.35 -164658213#11 -164658213#11.10 -164658213#11.12 -164658213#10 -164658213#10.55 -164658213#9 -164658213#8 -164658213#7 -164658213#6 -164658213#6.156 363370637#2 363370637#3 363370637#4 363370637#5 363370637#6 363370637#6.48 363370637#7 363370637#7.6 288127321#0 -6339575#4 -6339575#4.7 -6339575#3 -6339575#3.102 -6339575#3.107 -22273541#2 -22273541#2.12 -22273541#2.93 -22273541#2.95 -22273541#1 -22273541#1.7 -22273541#1.11 -22273541#0 -22273541#0.41 -22273541#0.43 22273546#3 22273546#3.1 22273546#3.3 22273546#3.4 22273546#3.6 22273546#0 22273546#0.1 22273546#0.3 22273546#0.4 22273546#0.6 -32618074#8 -32618074#8.3 -32618074#8.5 -32618074#7 -32618074#6 -32618074#5 -32618074#4 -32618074#4.52 -164658213#3 -164658213#2 -164658213#1 -164658213#0 -164658213#0.113 -36985595#2 -36985595#2.8 -36985595#2.116 -36985595#2.205 -36985595#1 -36985595#0 -36985594 -22278229#3 -22278229#2 -22278229#1 -22278229#0 -22278229#0.17 -22278230 -22278230.7 -22278230.40 22278231 22278231.9 22278231.16 22278231.25 22278231.54 -22278226 -22278226.9 -22278226.55 -6391580#1 -6391580#1.7 -6391580#1.137 -6391580#1.151 -6391580#1.169 -6391580#1.181 -6391580#0 -6391580#0.16 -6391580#0.30 -6391580#0.45 -6391580#0.58 -6391580#0.69 -6391580#0.71 187827704#1 187827704#1.7 187827704#1.56 187827704#1.70 187827704#1.82 187827704#1.93 187827704#1.174 187827704#1.180 187827704#1.185 187827704#1.187 -541338171#0 -6332167#1 -6332167#1.11 -6332167#1.29 -6332167#1.51 -6332167#1.66 -6332167#1.79 -6332167#1.100 -6332167#1.119 -6332167#1.134 -6332167#0 -6332167#0.10 6386692#3 6386692#3.3 6386692#3.6 6386692#3.9 6338567#0 6338567#0.10 6338567#0.118 6338567#1 6338567#1.107 6338567#2 6384655 6384655.5 6384655.17 6384655.30 6384655.48 6384655.61 6384655.78 6384655.94 6384655.110 6384655.135 6384655.156 6384655.172 6384655.189 6384655.204 6384655.214 6384655.225 6384655.233 6384655.237 -694455409#3 -694455409#3.4 -694455409#3.6 -694455409#3.10 -694455409#3.32 -694455409#3.62 -694455409#3.77 -694455409#3.89 -694455409#1 -694455409#1.21 -694455409#0 -694455409#0.15 -694455409#0.26 -694455409#0.37 -694455409#0.48 -694455409#0.58 -694455409#0.68 -694455409#0.104 -694455409#0.109 -694455409#0.119 6338567#5 6338567#5.8 -6341488#12 -6341488#12.15 -6341488#12.26 -6341488#12.42 -6341488#12.55 -6341488#12.74 -6341488#11 -6341488#11.22 -6341488#11.37 -6341488#11.49 -6341488#10 -6341488#10.15 -6341488#10.27 -6341488#10.40 -6341488#10.58 -6341488#10.73 -6341488#10.85 -6341488#10.95 -6341488#10.107 -6341488#10.117 -6341488#9 -6341488#9.5 -6341488#9.13 -6341488#8 -6341488#7 -6341488#7.25 -6341488#7.36 -6341488#7.76 -6341488#7.99 -6341488#6 -6341488#5 -6341488#5.27 -6341488#5.44 -6341488#5.62 -6341488#5.81 -6341488#5.125 -6341488#5.146 -6341488#5.159 -6341488#5.173 -6341488#5.186 -6341488#5.210 -6341488#5.226 -6341488#4 -6341488#4.10 -6341488#4.17 -6341488#4.26 6359553 6359553.20 6359553.30 6359553.40 6359553.50 6359553.61 6359553.103 6359553.114 6359553.123 6359553.148 -190579762#1 -190579762#1.18 -190579762#1.34 -190579762#1.48 -190579762#1.61 -190579762#1.72 -190579762#0 -190579762#0.9 -190579762#0.20 -190579762#0.30 -190579762#0.41 -190579762#0.48 -190579762#0.50 -6400759 -6400759.10 -6400759.12 190579817#0 190579817#0.11 190579817#1 190579817#1.5 190579817#1.14 190579817#1.25 190579817#1.37 190579817#1.55 190579817#1.68 6333513#0 6333513#0.10 6333513#0.40 6333513#0.51 6333513#0.62 6333513#0.73 6407689#0 6407689#1 6407689#1.22 6407689#1.35 6407689#1.53 6407689#1.68 6407689#1.82 -6352134#2 -6352134#2.15 -6352134#2.29 -6352134#2.47 -6352134#2.62 -6352134#2.110 -6352134#1 -6352134#0 -6352134#0.20 -6352134#0.39 -6352134#0.53 -6352134#0.63 -6352134#0.79 -11043364#1 -11043364#0 -11043364#0.73 -11043364#0.81 -7857575#1 -7857575#1.27 -7857575#1.57 -7857575#1.75 -7857575#1.83 -7857575#1.99 -7857575#1.115 -7857575#1.152 -7857575#1.166 -7857575#1.179 -7857575#1.219 -7857575#1.229 -7857575#1.268 -7857575#1.290 -7857575#1.315 -7857575#1.332 -7857575#1.343 -7857575#1.361 -7857575#1.378 -7857575#1.390 -7857575#1.402 -7857575#1.416 -7857575#1.443 -7857575#1.452 -7857575#1.462"/>
</vehicle>
<vehicle id = "veh7" type= "veh_passenger" depart="10815" >
<route edges =" -316633577#1 -316633577#0 -797309094#1 -797309094#0 -797309094#0.6 -797309094#0.12 -797309095 -165864174#3 -165864174#2 -165864174#1 5149904#0 5149904#0.6 5149904#1 5149904#1.2 -201989357 -201989357.7 -201989357.39 -201989357.50 -201989357.52 -6405162#1 -6405162#1.8 -6405162#1.26 -6405162#1.79 -6405162#0 -6405162#0.9 -6405162#0.41 -6405162#0.58 -6405162#0.69 -6405162#0.78 -6405162#0.84 -6405162#0.90 -6356253 -6356253.9 -6356253.18 -6356253.25 -6356253.32 -6356253.183 -6356253.191 -6356253.193 -201989360#2 -201989360#2.6 -201989360#2.14 -201989360#1 -201989360#1.34 -201989360#0 -201989360#0.20 -201989360#0.24 -656030857 -656030854 24620194 24620194.9 24620194.16 24620194.19 -698994088#2 -698994088#1 -698994088#1.18 -698994088#0 -698994088#0.76 -698994089#1 -698994089#1.4 -698994089#0 -21460654 -21460654.2 -21460654.3 -21460654.34 -21460654.121 -21460654.130 -21460654.140 -24620176#2 -24620176#2.10 -24620176#2.23 -24620176#2.35 -24620176#1 -24620176#0 21459815#0 21459815#1 -6339489#1 -6339489#1.6 -6339489#0 -6339489#0.112 -6339489#0.116 -6339489#0.117 -7781335 -7781335.7 -7781335.9 -7781335.148 -7781335.152 -6403136 -6403136.5 -6403136.98 -6403136.101 659099712#0 659099712#0.28 659099712#0.35 659099712#1 659099712#2 201989371#0 201989371#1 201989371#1.4 201989371#1.20 201989371#2 201989371#2.4 201989371#2.24 201989371#2.80 201989371#2.102 201989371#2.113 201989371#2.143 201989371#2.151 201989371#2.158 201989371#2.159 201989371#3 201989371#4 201989371#4.9 201989371#4.13 201989371#4.22 -6338294#1 -6338294#0 -6338294#0.13 -6338294#0.33 -6338294#0.79 -6338294#0.94 -6338294#0.100 -6377274#2 -6377274#2.14 -6377274#2.19 -6377274#2.20 -6377274#2.34 -6377274#2.36 -6377274#2.56 -6377274#2.83 -6377274#1 -6377274#1.17 -6377274#1.27 -6377274#0 -6377274#0.5 698805191#0 698805191#0.5 698805191#1 698805191#2 698805190 698805190.31 -517583963#3 -517583963#3.30 -517583963#2 -517583963#2.22 -517583963#1 -517583963#1.13 -517583963#1.28 -517583963#1.48 -517583963#0 -517583963#0.2 -517583963#0.16 -517583963#0.29 -195433870#1 -195433871#1 -195433871#0 -618326398#3 -618326398#2 -618326398#1 -618326398#1.45 -618326398#0 -618326398#0.5 -184876631#7 -184876631#7.6 -184876631#6 -184876631#5 -184876631#4 -184876631#3 -184876631#2 -184876631#1 -184876631#0 -22016936#2 -22016936#1 -22016936#1.13 -22016936#0 22016934#0 22016934#0.16 22016934#1 559724188 559724188.22 6365504#0 6365504#0.12 6365504#0.17 6365504#0.22 6365504#1 6365504#1.47 6365504#2 6365504#3 6365504#4 6365504#4.3 6365504#4.26 6365504#4.41 6365504#4.55 6365504#4.71 6365504#5 6365504#5.14 -6400775#27 -6400775#27.6 -6400775#26 -6400775#26.2 -6400775#26.21 37060496#0 37060496#0.7 37060496#1 37060496#2 188283054 188283054.9 -23873746#1 -23873746#0 -23873746#0.3 -23873746#0.43 -22273549 -22273549.7 -22273549.14 -22273549.19 -22273549.30 -430161670#1 -430161670#1.7 -430161670#0 -430174924#2 -430174924#2.6 -430174924#1 -430174924#1.11 -430174924#1.21 -430174924#1.33 -430174924#1.45 -430174924#1.58 -288127321#6 -288127321#6.8 -288127321#5 -6400775#22 -6400775#21 -6400775#21.9 -6400775#21.26 -6400775#21.31 -6400775#21.41 -6400775#20 -6400775#20.16 -6400775#19 -6400775#19.6 -6400775#19.18 -6400775#19.19 -6400775#19.28 -6400775#19.34 -6400775#19.49 -6400775#19.58 -6400775#18 -6400775#18.1 -6400775#18.54 -6400775#17 -6400775#16 -6400775#15 -6400775#15.27 -6400775#15.60 -6400775#15.68 -6400775#15.72 -6400775#15.75 -6400775#14 -6400775#13 -6400775#13.4 -6400775#12 -6400775#11 -6400775#10 -6400775#10.91 -6400775#10.107 430285891 6398981 6398981.7 6398981.30 6398981.36 6398981.42 6398981.50 6398981.79 -6347531 -6347531.58 -6347531.76 -6347531.94 -6400722#0 -190380685#1 -190380685#1.9 -190380685#1.20 -190380685#1.38 -190380685#1.61 -190380685#1.77 -190380685#1.84 -190380685#0 -190380685#0.11 -190380685#0.22 -190380685#0.34 -190380685#0.60 -190380689#3 -190380689#2 -22277719#3 -22277719#2 -22277719#1 -22277719#1.48 -22277719#1.63 -22277719#0 -6400775#3 -6400775#3.15 -6400775#3.35 -6400775#3.44 -6400775#3.53 -6400775#3.63 -6400775#3.76 -6400775#3.90 -6400775#3.101 -6400775#3.112 -6400775#3.121 -6400775#2 -6400775#2.9 -6400775#2.16 -6400775#2.23 -6400775#2.29 -6400775#1 -6400775#1.10 -6400775#1.28 -6400775#1.38 -6400775#1.49 -6400775#1.59 -6400775#0 -6400775#0.3 -6400775#0.8 24221419#0 24221419#0.12 24221419#0.22 24221419#0.35 24221419#0.47 24221419#1 24221419#1.10 24221419#2 24221419#2.4 24221419#2.15 24221419#2.26 24221419#2.38 24221419#2.49 24221419#3 24221419#4 24221419#4.8 24221419#4.15 24221419#4.24 24221419#4.32 24221419#4.41 24221419#4.49 24221419#4.57 24221419#4.69 24221419#4.82 24221419#4.94 24221419#4.100 24221419#4.109 24221419#4.119 24221419#4.127 24221419#5 24221419#5.9 24221419#5.16 24221419#5.22 24221419#5.29 -190579762#18 -190579762#18.4 -190579762#18.5 -190579762#18.14 -190579762#18.28 -190579762#18.50 -190579762#18.74 -190579762#17 -190579762#17.47 -6341488#15 -6341488#15.10 -6341488#15.23 -6341488#15.36 -6341488#15.49 -6341488#15.61 -6341488#15.73 -6341488#15.84 -6341488#15.97 -6341488#15.111 -6341488#15.124 -6341488#15.136 -6341488#15.150 -6341488#15.163 -6341488#15.179 -6341488#15.229 -6341488#15.241 -6341488#14 -6341488#14.8 -6341488#14.20 -6341488#14.36 -6341488#14.51 -6341488#14.67 -6341488#14.105 -6341488#14.115 -6341488#14.127 -6341488#13 -6341488#13.6 -6341488#13.35 -6341488#13.61 -6341488#13.81 -6341488#13.101 -6341488#13.124 -6341488#13.176 6338567#6 6336095#2 6336095#2.8 6336095#2.26 6336095#2.155 -190579762#10 -190579762#10.15 -190579762#10.28 -190579762#10.45 -190579762#9 -190579762#9.17 -190579762#9.29 -190579762#9.42 -190579762#9.56 -190579762#9.71 -190579762#9.81 6338567#8 6338567#8.11 6338567#9 6338567#10 6338567#11 6338567#12 -190579811#1 -190579811#1.12 -190579811#1.20 -190579811#1.36 -190579811#1.50 -190579811#1.69 -190579811#1.82 -190579811#1.101 -190579811#1.120 -190579811#1.121 -11043363#4 -11043363#4.9 -11043363#4.16 -11043363#4.34 -11043363#4.41 -11043363#3 -11043363#3.7 -11043363#2 -11043363#1 6361146#0 6361146#0.52 6361146#0.64 6361146#0.89 6361146#0.103 6361146#0.116 6361146#0.128 6361146#0.148 6361146#0.201 6361146#0.214 6361146#0.230 6361146#0.246 6361146#0.259 6361146#0.276 -6361141 -6361141.7 194872395#4 194872395#4.5 194872395#4.9 194872395#4.12 194872395#4.17 194872395#4.22 194872395#4.29 194872395#4.115 194872395#4.139 194872395#4.158 194872395#4.166 194872395#4.175 194872395#4.193 194872395#4.217 194872395#4.233 7857575#0 7857575#0.10 7857575#0.24 7857575#0.39 7857575#0.57 7857575#0.75 7857575#0.88 7857575#0.126 7857575#0.144 7857575#0.146 7857575#0.162 7857575#0.184 7857575#0.212 7857575#0.218 7857575#0.224 7857575#0.229 7857575#0.241 7857575#0.275 7857575#0.303 7857575#0.315 7857575#0.324 7857575#0.326 7857575#0.339 7857575#0.350 7857575#0.357 7857575#0.360 7857575#0.410 7857575#1 7857575#1.42 7857575#1.66 7857575#1.85"/>
</vehicle>
<vehicle id = "veh8" type= "veh_passenger" depart="14420" >
<route edges =" 797309093 797309091#0 797309091#0.10 797309091#1 797309091#1.7 797309091#2 797309091#2.10 797309091#2.15 797309091#3 377635148 377635148.3 377635148.5 -437142992 -437142992.6 -6329160 -6329160.124 -6329160.133 785854260#3 785854260#3.11 785854260#3.30 785854260#4 785854260#4.14 785854260#4.73 785854260#5 -20625899 -20625899.13 -20625899.430 6344478 6344478.10 -201989358#4 -201989358#4.8 -201989358#4.92 -201989358#4.97 -201989358#3 -201989358#2 -201989358#2.18 -201989358#1 -201989358#1.6 -201989358#1.82 -201989358#0 -195430724#15 -195430724#14 -195430724#14.20 -195430724#13 -195430724#13.78 -195430724#12 -195430724#12.8 -195430724#12.12 -195430724#11 -195430724#11.17 -195430724#9 -195430724#8 -195430724#7 -195430724#7.8 -195430724#6 -195430724#6.35 -168627934#1 -168627934#1.8 -168627934#0 -168627934#0.7 -7783135#3 -7783135#3.7 164659473#11 -6360234#3 -6360234#2 -6360234#1 -6360234#0 -6360234#0.31 416106321#3 416106320#0 416106320#1 -698994081#5 -698994081#4 -698994081#3 -698994081#2 -698994081#1 -698994081#0 6333764#0 6333764#1 6333764#1.11 6333764#2 6333764#3 6333764#4 6333764#5 6333764#6 6333764#6.55 541334899#0 541334899#0.7 541334899#1 541334899#2 541334899#3 541334899#4 541334899#5 541334786#0 541334786#1 541334786#1.21 541334786#2 -698994093#10 -698994093#9 -698994093#8 -698994093#8.7 -698994093#7 -698994093#7.11 -698994093#6 -698994093#5 -698994093#5.50 -698994093#4 -698994093#4.7 -698994093#3 -698994093#2 -698994093#1 -698994093#0 -698994093#0.12 -698994093#0.22 6348015 6348015.7 761330890 761330889#0 761330889#1 761330889#2 761330889#3 761330889#3.83 761330889#4 517593873#2 517593873#2.29 517593873#3 415876778 22278225#0 22278225#0.24 22278225#1 22278225#1.6 22278225#1.16 22278225#1.26 196779231#0 196779231#0.12 196779231#1 196779231#1.17 21452694#0 21452694#0.5 21452694#0.7 21452694#0.9 21452694#0.14 21452694#0.21 21452694#0.27 21452694#0.101 21452694#1 21452694#1.9 21452694#1.14 21452694#1.27 21452694#2 415878130#0 415878130#1 415878131#0 415878131#1 682209186 196779232 196779232.9 415878126 415878126.6 415878137#0 415878137#1 194859188#0 194859188#1 194859188#1.24 415878134#0 415878134#1 202177316#0 202177316#1 202177316#2 415878127 415878127.3 415878136#0 415878136#1 -415876790#1 -415876790#0 -756453993 -559526390 -559526390.35 -202485362#1 -202485362#0 -202485362#0.8 -202485362#0.21 -684030184 -559724189#1 -559724189#1.9 -559724189#0 415884022#0 415884022#1 415884022#1.84 7841698#10 7841698#10.7 7841698#10.11 7841698#10.83 7841698#10.85 -164658213#10 -164658213#10.55 -164658213#9 -164658213#8 24314605#15 24314605#15.92 24314605#15.94 -21452801#12 -21452801#12.7 -21452801#12.36 -21452801#11 -21452801#10 -21452801#10.1 -21452801#10.21 -21452801#9 363370637#4 363370637#5 363370637#6 363370637#6.48 -22273544#1 -22273544#1.6 -22273544#1.107 -22273544#0 -22273544#0.36 -22273544#0.38 22273546#2 22273546#2.1 22273546#2.2 22273546#2.4 22273546#2.5 22273546#3 22273546#3.1 22273546#3.3 22273546#3.4 22273546#3.6 -22278234 -22278234.3 -22278234.5 -22278234.190 -193256683#1 -193256683#1.8 -193256683#0 -164658212#1 -164658212#0 -164658212#0.85 -32618072#2 -32618072#2.7 -32618072#1 -32618072#0 -32456227#8 -32456227#7 7773738#0 7773738#1 7773738#1.2 7773738#2 7773738#2.13 7773738#2.25 7773738#3 166510702#0 166510702#1 166510702#1.13 166510702#2 166510702#2.1 415884025#0 415884025#0.17 415884025#1 287012521#0 287012521#1 287012521#1.1 287012521#1.16 287012521#2 287012521#2.4 287012521#2.16 28594451#0 28594451#0.12 28594451#0.25 28594451#1 28594451#1.81 28594451#2 32618070#0 32618070#1 32618070#1.89 22277729#2 22277729#3 36985596 36985597#0 36985597#1 36985597#2 36985597#2.46 36985597#2.74 541337642 541337642.7 -6375690 -6375690.18 -6375690.45 -6375690.64 -6375690.85 -6375690.105 -6375690.129 -6375690.151 -6375690.165 -6327827#1 -6327827#1.7 -6327827#0 -6327827#0.170 541338171#0 187827704#2 187827704#2.7 187827704#2.15 187827704#2.33 187827704#2.51 187827704#2.70 187827704#2.88 187827704#2.107 187827704#2.123 187827704#2.139 187827704#2.159 187827704#2.236 187827704#2.255 187827704#2.270 187827704#2.279 6338567#1 6338567#1.107 6338567#2 6338567#3 6338567#3.80 6338567#4 6338567#4.78 -193256686#18 -193256686#18.7 -193256686#18.13 -193256686#18.29 -193256686#18.38 -193256686#18.57 -193256686#18.88 -193256686#18.120 -193256686#18.133 -193256686#18.145 -193256686#18.160 -193256686#18.174 -193256686#18.187 -193256686#18.196 -193256686#18.199 6336095#0 6336095#0.5 6336095#0.11 6336095#0.21 6336095#0.27 6336095#0.35 6336095#0.51 6336095#0.65 6336095#0.78 6336095#0.90 6336095#0.102 6336095#0.116 6336095#0.126 6336095#0.146 6336095#0.164 6336095#0.185 6336095#0.203 6336095#1 6336095#1.21 6336095#1.30 6336095#1.42 6336095#1.55 6336095#1.84 6338567#7 6338567#7.90 6338567#8 6338567#8.11 6338567#9 6338567#10 6338567#11 -6331171#0 -6331171#0.25 -6331171#0.43 -6331171#0.60 -6331171#0.76 -6331171#0.88 -6331171#0.103 -6331171#0.128 -6331171#0.142 -6331171#0.152 -6331171#0.164 -6331171#0.175 -6331171#0.204 -6331171#0.224 -6331171#0.241 -6331171#0.267 -6331171#0.278 -6331171#0.300 -6331171#0.317 -6331171#0.335 -6331171#0.377 -6331171#0.390 -6331171#0.400 -190579779#2 -190579779#2.8 -190579779#1 -190579779#1.11 -190579779#1.12 -190579779#1.23 -190579779#1.39 -190579779#1.63 -190579779#0 -190579779#0.109 -190579779#0.117 6333513#0 6333513#0.10 6333513#0.40 6333513#0.51 6333513#0.62 6333513#0.73 6407689#0 -11043364#4 6344393 6344393.33 6344393.38 6344393.42 6344393.48 -11043364#2 -11043364#1 -11043364#0 -11043364#0.73 -11043364#0.81 -7857575#1 -7857575#1.27 -7857575#1.57 -7857575#1.75 -7857575#1.83 -7857575#1.99 -7857575#1.115 -7857575#1.152 -7857575#1.166 -7857575#1.179 -7857575#1.219 -7857575#1.229 -7857575#1.268 -7857575#1.290 -7857575#1.315 -7857575#1.332 -7857575#1.343 -7857575#1.361 -7857575#1.378 -7857575#1.390 -7857575#1.402 -7857575#1.416 -7857575#1.443 -7857575#1.452 -7857575#1.462"/>
</vehicle>
<vehicle id = "veh9" type= "veh_passenger" depart="14420" >
<route edges =" -316633577#1 -316633577#0 -6340080#2 -6340080#1 -6340080#0 -6340080#0.27 -201989373 -201989373.4 -201989373.9 -201989373.42 678979330 678979330.18 24620199 24620199.9 24620199.11 -6405162#1 -6405162#1.8 -6405162#1.26 -6405162#1.79 -6405162#0 -6405162#0.9 -6405162#0.41 -6405162#0.58 -6405162#0.69 -6405162#0.78 -6405162#0.84 -6405162#0.90 -6356253 -6356253.9 -6356253.18 -6356253.25 -6356253.32 -6356253.183 -6356253.191 -6356253.193 -201989360#2 -201989360#2.6 -201989360#2.14 -201989360#1 -201989360#1.34 -201989360#0 -201989360#0.20 -201989360#0.24 -656030857 -656030854 -21460887 -21460887.18 -201989376 -201989376.8 -201989376.15 -698994088#2 -698994088#1 -698994088#1.18 -698994088#0 -698994088#0.76 -698994089#1 -698994089#1.4 -24620180 -24620180.9 -24620180.11 -24620180.92 -24620180.94 -24620180.96 24620182 24620182.2 24620182.6 24620182.11 24620182.187 24620182.191 24620182.193 -6369662#1 -6369662#1.2 -6369662#1.4 -6369662#1.8 -6382818#1 -6382818#0 -6382818#0.169 43256407#4 43256407#4.88 43256407#4.93 43256407#5 43256407#6 21459815#0 21459815#1 21459815#2 21459815#2.8 -311941950#2 -311941950#2.7 -311941950#1 -311941950#1.61 -698994086 -698994086.6 -7781341#2 -7781341#1 -7781341#0 -7781341#0.21 -7781341#0.24 360736209#1 360736209#1.2 360736209#1.5 360736209#1.7 360736209#1.10 360736209#1.13 360736209#1.15 618175146 618175146.5 618175146.15 618175146.26 618175146.42 618175146.57 618175146.79 618175146.81 24620174 24620174.24 24620174.37 24620174.46 659099712#0 659099712#0.28 659099712#0.35 659099712#1 659099712#2 201989371#0 201989371#1 201989371#1.4 201989371#1.20 201989371#2 201989371#2.4 201989371#2.24 201989371#2.80 201989371#2.102 201989371#2.113 201989371#2.143 201989371#2.151 201989371#2.158 201989371#2.159 201989371#3 201989371#4 201989371#4.9 201989371#4.13 201989371#4.22 -6338294#1 -6338294#0 -6338294#0.13 -6338294#0.33 -6338294#0.79 -6338294#0.94 -6338294#0.100 -6377274#2 -6377274#2.14 -6377274#2.19 -6377274#2.20 -6377274#2.34 -6377274#2.36 -6377274#2.56 -6377274#2.83 -6377274#1 -6377274#1.17 -6377274#1.27 -6377274#0 -6377274#0.5 698805191#0 698805191#0.5 698805191#1 698805191#2 698805190 698805190.31 -517583963#3 -517583963#3.30 -517583963#2 -517583963#2.22 -517583963#1 -517583963#1.13 -517583963#1.28 -517583963#1.48 -517583963#0 -517583963#0.2 -517583963#0.16 -517583963#0.29 -195433870#1 -7991097#3 -7991097#2 -7991097#2.2 -7991097#2.17 -7991097#1 -7991097#0 -7991097#0.34 -23089172#13 -23089172#13.7 -23089172#12 -23089172#11 -23089172#10 -23089172#10.58 -23089172#9 -23089172#9.6 -23089172#8 -23089172#7 -23089172#6 -23089172#6.22 -23089172#5 -23089172#5.7 -23089172#4 -23089172#3 -23089172#2 -23089172#2.9 -23089172#2.12 -23089172#2.20 -23089172#1 -23089172#1.4 -23089172#0 -23089172#0.2 -23089172#0.8 -23089172#0.32 -23089172#0.53 23089174 -6339579#6 -6339579#5 -6339579#5.3 -6339579#4 -6339579#3 -6339579#3.31 -6339579#2 -6339579#2.9 -6339579#1 -6339579#1.60 -6339579#1.62 -6339579#0 -6339579#0.7 -6339579#0.8 288127321#2 288127321#2.19 -430285894 -430285894.21 -430285894.48 -430285894.58 -430285894.70 -430285894.112 -430285894.151 -430285894.190 -22273541#3 -22273541#3.7 -22273541#3.16 -22273541#3.40 -22273541#3.51 -22273541#3.62 -22273541#3.73 -6339575#2 -6339575#2.7 -6339575#2.110 -6339575#2.116 -6339575#1 -6339575#1.10 -6339575#1.21 -6339575#1.33 -6339575#1.50 -6339575#1.56 -6339575#0 -6339575#0.7 -6339575#0.24 -6339575#0.34 -6339575#0.44 -6339575#0.53 -6339575#0.96 -6339575#0.102 -6339575#0.107 -6339575#0.112 -6339575#0.120 -6398981 -6398981.22 -6398981.50 -6398981.58 -6398981.64 -6398981.70 -6398981.93 -430285891 -6400775#9 -6400775#9.3 -6400775#8 -6400775#8.2 -6400775#7 -6400775#7.19 -6400775#7.34 -6400775#7.49 -6400775#7.64 -6400775#7.76 -6400775#6 -6400775#6.34 -6400775#5 -6400775#5.24 -6400775#5.53 -6400775#5.72 -6400775#5.79 -6400775#5.83 -6400775#5.99 -6400775#4 -6400775#3 -6400775#3.15 -6400775#3.35 -6400775#3.44 -6400775#3.53 -6400775#3.63 -6400775#3.76 -6400775#3.90 -6400775#3.101 -6400775#3.112 -6400775#3.121 -6400775#2 -6400775#2.9 -6400775#2.16 -6400775#2.23 -6400775#2.29 -6400775#1 -6400775#1.10 -6400775#1.28 -6400775#1.38 -6400775#1.49 -6400775#1.59 -6400775#0 -6400775#0.3 -6400775#0.8 24221419#0 24221419#0.12 24221419#0.22 24221419#0.35 24221419#0.47 24221419#1 24221419#1.10 24221419#2 24221419#2.4 24221419#2.15 24221419#2.26 24221419#2.38 24221419#2.49 24221419#3 24221419#4 24221419#4.8 24221419#4.15 24221419#4.24 24221419#4.32 24221419#4.41 24221419#4.49 24221419#4.57 24221419#4.69 24221419#4.82 24221419#4.94 24221419#4.100 24221419#4.109 24221419#4.119 24221419#4.127 24221419#5 24221419#5.9 24221419#5.16 24221419#5.22 24221419#5.29 -190579762#18 -190579762#18.4 -190579762#18.5 -190579762#18.14 -190579762#18.28 -190579762#18.50 -190579762#18.74 -190579762#17 -190579762#17.47 6341488#16 6341488#16.13 6341488#16.20 6341488#16.48 6341488#16.58 6341488#16.72 6341488#16.96 6341488#16.142 6341488#16.158 6341488#16.170 6341488#16.183 6341488#16.197 -6336093#4 -6336093#4.17 -6336093#4.38 -6336093#4.53 -6336093#4.79 -6336093#4.90 -6336093#3 -6336093#3.13 -6336093#3.25 -6336093#3.39 -6336093#3.120 -6336093#3.127 -6336093#3.135 -6336093#2 -6336093#1 -6339085#8 -6339085#8.12 -6339085#8.19 -6339085#8.28 -6339085#8.38 -6339085#8.98 -6339085#8.116 -6339085#7 -6339085#7.29 -6339085#7.47 -6339085#7.68 -6339085#7.87 -6339085#7.110 -6339085#6 6335820 6335820.8 6335820.17 6335820.61 6335820.74 6335820.81 6335820.90 6335820.96 6335820.103 6335820.110 6335820.134 6335820.141 6331171#2 6331171#2.20 6331171#2.38 6331171#2.59 6335821 6335821.6 6335821.12 6335821.132 6335821.143 6335821.154 6335821.165 6335821.179 6335821.187 -190579811#2 -190579811#2.12 -190579811#2.16 -190579811#2.27 -190579811#2.39 -190579811#2.49 -190579811#2.50 -190579811#1 -190579811#1.12 -190579811#1.20 -190579811#1.36 -190579811#1.50 -190579811#1.69 -190579811#1.82 -190579811#1.101 -190579811#1.120 -190579811#1.121 -11043363#4 -11043363#4.9 -11043363#4.16 -11043363#4.34 -11043363#4.41 -11043363#3 -11043363#3.7 -11043363#2 -11043363#1 -11043363#0 7857575#0 7857575#0.10 7857575#0.24 7857575#0.39 7857575#0.57 7857575#0.75 7857575#0.88 7857575#0.126 7857575#0.144 7857575#0.146 7857575#0.162 7857575#0.184 7857575#0.212 7857575#0.218 7857575#0.224 7857575#0.229 7857575#0.241 7857575#0.275 7857575#0.303 7857575#0.315 7857575#0.324 7857575#0.326 7857575#0.339 7857575#0.350 7857575#0.357 7857575#0.360 7857575#0.410 7857575#1 7857575#1.42 7857575#1.66 7857575#1.85"/>
</vehicle>
<vehicle id = "veh10" type= "veh_passenger" depart="18025" >
[...]
</vehicle>
<vehicle id = "veh12" type= "veh_passenger" depart="21630" >
<route edges =" 797309093 797309091#0 797309091#0.10 797309091#1 797309091#1.7 797309091#2 797309091#2.10 797309091#2.15 797309091#3 377635148 377635148.3 377635148.5 -437142992 -437142992.6 -6329160 -6329160.124 -6329160.133 785854260#3 785854260#3.11 785854260#3.30 -763290363 -763290363.11 -24620691#4 -24620691#3 -6347955 -6347955.7 -188703042#2 -188703042#1 -188703042#1.59 -188703042#1.74 -188703042#0 -188703042#0.9 -188703042#0.21 -188703049 -201989352#2 -201989352#2.8 -201989352#1 -201989352#1.9 -201989352#1.29 -201989352#0 -195430724#15 -195430724#14 -195430724#14.20 -195430724#13 -195430724#13.78 10585275#1 10585275#1.9 10585275#2 10585275#3 10585275#3.7 10585275#3.83 -7795936#1 -7795936#1.3 -7795936#0 -7795936#0.137 -6332541#1 -6332541#0 -6332541#0.83 -164659478#5 -164659478#5.7 6360234#7 -164659477#8 -164659477#8.7 -164659477#7 -164659477#7.9 -164659477#7.96 6344564#0 6344564#0.8 6344564#0.11 6344564#0.19 6344564#0.30 6344564#0.41 6344564#1 6344564#2 6344564#2.19 6344564#2.21 -34815545#0 -34815545#0.7 -34815545#0.26 -416102056#1 -416102056#0 -516590552 -416102055 -202317702#2 -202317702#1 -202317702#1.6 -202317702#0 742663482#0 742663482#1 742663482#2 742663482#2.7 742663482#3 742663482#4 574299582#0 574299582#1 574299582#2 574299582#2.15 574299582#3 574299582#3.7 574299582#4 574299582#5 574299582#6 574299582#7 574299582#8 574299582#8.4 574299582#8.23 574299582#9 574299582#9.13 574299582#10 574299582#10.7 574299582#10.56 574299582#11 574299582#12 164659478#0 164659478#1 164659478#2 164659478#2.41 164659478#2.70 164659478#2.127 164659478#3 164659478#3.7 -6362542#1 -6362542#1.7 -6362542#0 -6362542#0.104 -7783135#3 -7783135#3.7 -164659473#10 -164659473#10.7 7783131#3 7783131#4 7783131#4.171 -34811472#9 -34811472#9.6 -34811472#9.49 -34811472#8 -34811472#7 -34811472#6 202317716#5 202317716#6 202317716#7 202317716#8 202317716#8.63 -164659438#2 -164659438#2.12 -164659438#1 -164659438#1.55 25316538#5 25316538#5.92 -34811472#3 -34811472#3.7 -34811472#3.66 -34811472#3.122 -34811472#3.194 -164659447#0 -164659447#0.7 -164659447#0.91 164659513#1 164659513#1.1 164659513#1.3 164659513#1.5 164659513#1.6 164659513#2 164659513#2.1 164659513#2.3 164659513#2.4 164659513#2.6 164659513#3 164659513#3.1 164659513#3.3 164659513#3.5 164659513#3.6 -910274653#2 -910274653#2.3 -910274653#1 -24024251#1 910274650#3 910274650#4 910274650#4.35 164659510#4 164659510#0 164659510#0.1 164659510#0.3 164659510#0.4 164659510#1 164659510#1.1 164659510#1.2 164659510#1.4 164659510#1.5 164659473#0 164659473#0.3 164659473#1 164659473#2 164659473#2.39 164659473#3 164659473#3.7 -6404484 -24024250#4 -24024250#4.80 -25316538#0 21455622#0 21455622#0.7 21455622#1 196779227#0 196779227#0.7 196779227#1 196779227#2 196779227#3 541335063#0 541335063#1 541335063#2 415878804#0 415878804#1 415878803#0 415878803#1 541334900#0 541334900#1 541334900#2 541334900#3 541334900#4 541334900#5 541334900#6 698994092#3 698994092#4 698994092#4.84 6348015 6348015.7 761330890 761330889#0 761330889#1 761330889#2 761330889#3 761330889#3.83 761330889#4 517593873#2 517593873#2.29 517593873#3 415876778 196779219#0 196779219#1 196779219#2 196779219#3 30833030#0 30833030#1 30833030#1.19 196779231#0 196779231#0.12 196779231#1 196779231#1.17 21452694#0 21452694#0.5 21452694#0.7 21452694#0.9 21452694#0.14 21452694#0.21 21452694#0.27 21452694#0.101 21452694#1 21452694#1.9 21452694#1.14 21452694#1.27 21452694#2 415878130#0 415878130#1 415878131#0 415878131#1 682209186 196779232 196779232.9 415878126 415878126.6 415878137#0 415878137#1 22372598#1 22372598#2 22372598#3 -6391592#1 -6391592#1.7 -6391592#0 -6391592#0.14 781008559#0 781008559#1 781008559#2 781008559#3 202177316#0 202177316#1 202177316#2 415878127 415878127.3 415878136#0 415878136#1 415876789 195433872 -168627978#4 -168627978#3 -168627978#2 -168627978#1 -168627978#1.20 -168627978#0 -168627978#0.13 -168627978#0.22 -168627978#0.59 -168627978#0.79 -168627978#0.98 -168627978#0.113 -168627978#0.142 -168627975 -168627975.12 -168627975.22 -168627975.32 -168627975.40 22273558 22273558.11 22273558.17 22273558.33 22273558.45 22273558.58 22273558.66 22273558.77 22273558.85 22273558.92 22273558.103 22273558.113 22273558.118 -7990899#2 -7990899#2.27 -7990899#1 -7990899#0 -7990899#0.77 -6400722#10 -6400722#10.8 -6400722#9 -6400722#8 -6400722#7 -6400722#6 -6400722#6.20 -6400722#6.23 -6400722#5 -6400722#5.7 -6400722#5.8 -6400722#4 -6400722#3 -6400722#2 -6400722#1 -6400722#0 190380683#0 190380683#0.12 190380683#0.36 190380683#1 190380683#1.14 190380683#1.31 190380683#1.46 -618189913#4 -618189913#4.5 -618189913#4.9 -618189913#4.25 -618189913#3 -618189913#2 -618189913#1 -618189913#1.76 -618189913#1.91 22277719#7 22277719#7.7 22277719#7.92 -6372698#1 -6372698#1.6 -6372698#1.163 -6372698#1.180 -6372698#1.188 -6372698#1.196 -6372698#1.218 -6372698#0 -6372698#0.10 -6372698#0.23 -6372698#0.36 -6372698#0.49 -6372698#0.65 -6372698#0.80 -6372698#0.94 -6372698#0.109 -6372698#0.117 -189843769 -189843769.9 -189843769.16 -189843769.21 -189843769.40 -189843769.53 -189843769.65 -189843769.81 -189843769.92 -189843769.102 -189843769.112 -189843769.128 -189843769.138 -189843769.147 -189843769.158 -189843769.175 -189843769.191 -189843769.207 -189843769.220 -189843769.234 -189843769.257 -189843769.278 -189843769.293 -189843769.305 -189843769.317 -189843769.329 -189843769.366 -189843768 -189843768.9 -6372673#1 -6372673#1.8 -6372673#1.20 -6372673#0 -6372673#0.7 -6372673#0.15 -6372673#0.28 -6372673#0.42 -6372673#0.56 -6372673#0.76 -6372673#0.85 -6372673#0.95 -6372673#0.109 -6372673#0.123 -436204253#0 -436204253#0.23 -436204258 -436204258.24 -436204258.31 -436204258.38 -436204258.45 -436204258.52 -436204258.59 -436204257#1 -436204257#1.24 -436204257#1.61 -436204257#0 -436204257#0.152 -436204257#0.159 11154779#8 11154779#8.19 11154779#8.25 6338567#4 6338567#4.78 6338567#5 6338567#5.8 6338567#6 6338567#7 6338567#7.90 -190579762#8 -190579762#8.10 -190579762#8.20 -190579762#8.40 -190579762#8.57 -190579762#8.78 -190579762#8.98 -190579762#8.115 -190579762#8.129 -190579762#8.144 -190579762#7 -190579762#7.8 -190579762#7.16 -190579762#7.33 -190579762#7.40 -190579762#7.81 -190579762#7.95 -190579762#7.107 -190579762#7.119 -190579762#7.132 -190579762#7.144 -190579762#7.173 -190579762#6 -190579762#6.13 -190579762#6.17 -190579762#6.26 6369249 6369249.10 6369249.21 6369249.36 6369249.43 6369249.50 6369249.115 6369249.121 6369249.128 6369249.135 6369249.142 6369249.176 6369249.181 -6339085#2 -6339085#2.14 -6339085#2.26 -6339085#2.37 -6339085#2.49 -6339085#2.63 -6339085#2.115 -6339085#2.125 -6339085#2.140 -6339085#1 -6339085#0 -6339085#0.12 -6339085#0.27 -6339085#0.45 -6339085#0.77 -6339085#0.87 -6339085#0.98 -6339085#0.119 -6339085#0.129 -190579779#0 -190579779#0.109 -190579779#0.117 6333513#0 6333513#0.10 6333513#0.40 6333513#0.51 6333513#0.62 6333513#0.73 6407689#0 -11043364#4 -11043364#3 -11043364#2 -11043364#1 -11043364#0 -11043364#0.73 -11043364#0.81 -7857575#1 -7857575#1.27 -7857575#1.57 -7857575#1.75 -7857575#1.83 -7857575#1.99 -7857575#1.115 -7857575#1.152 -7857575#1.166 -7857575#1.179 -7857575#1.219 -7857575#1.229 -7857575#1.268 -7857575#1.290 -7857575#1.315 -7857575#1.332 -7857575#1.343 -7857575#1.361 -7857575#1.378 -7857575#1.390 -7857575#1.402 -7857575#1.416 -7857575#1.443 -7857575#1.452 -7857575#1.462"/>
</vehicle>
<vehicle id = "veh13" type= "veh_passenger" depart="21630" >
<route edges =" -316633577#1 -316633577#0 -6340080#2 -6340080#1 -6340080#0 -6340080#0.27 -201989373 -201989373.4 -201989373.9 -201989373.42 678979330 678979330.18 24620199 24620199.9 24620199.11 -6405162#1 -6405162#1.8 -6405162#1.26 -6405162#1.79 -6405162#0 -6405162#0.9 -6405162#0.41 -6405162#0.58 -6405162#0.69 -6405162#0.78 -6405162#0.84 -6405162#0.90 -6356253 -6356253.9 -6356253.18 -6356253.25 -6356253.32 -6356253.183 -6356253.191 -6356253.193 -201989360#2 -201989360#2.6 -201989360#2.14 -201989360#1 -201989360#1.34 -201989360#0 -201989360#0.20 -201989360#0.24 -656030857 -656030854 -21460887 -21460887.18 -24620184#1 -24620184#1.7 -24620184#0 -24620184#0.39 -24620184#0.44 -24620184#0.47 24620185#0 24620185#0.4 24620185#0.8 24620185#0.71 6318448#1 6318448#1.7 6318448#1.198 -195430724#6 -195430724#6.35 -195430724#5 -195430724#5.10 -195430724#5.24 -195430724#4 -195430724#3 -195430724#3.5 -195430724#3.137 -195430724#2 -195430724#2.27 6348367#0 6348367#0.7 6348367#1 6348367#1.91 6348367#1.95 -7795937 -7795937.3 -7795937.6 -7795937.11 -7795937.183 -7795937.190 43256407#5 43256407#6 24620192#0 24620192#1 24620192#1.7 24620192#1.15 24620192#1.23 24620192#1.38 24620192#1.60 24620192#1.80 24620178#0 24620178#0.5 24620178#0.25 24620178#1 24620178#1.2 24620178#1.30 24620178#1.44 24620178#1.47 360736209#0 360736209#0.2 360736209#0.4 360736209#0.7 360736209#0.9 360736209#0.12 7781341#0 7781341#0.10 7781341#0.12 7781341#1 7781341#2 -7781335 -7781335.7 -7781335.9 -7781335.148 -7781335.152 -6403136 -6403136.5 -6403136.98 -6403136.101 659099712#0 659099712#0.28 659099712#0.35 659099712#1 659099712#2 201989371#0 201989371#1 201989371#1.4 201989371#1.20 201989371#2 201989371#2.4 201989371#2.24 201989371#2.80 201989371#2.102 201989371#2.113 201989371#2.143 201989371#2.151 201989371#2.158 201989371#2.159 201989371#3 201989371#4 201989371#4.9 201989371#4.13 201989371#4.22 -6338294#1 -6338294#0 -6338294#0.13 -6338294#0.33 -6338294#0.79 -6338294#0.94 -6338294#0.100 -6377274#2 -6377274#2.14 -6377274#2.19 -6377274#2.20 -6377274#2.34 -6377274#2.36 -6377274#2.56 -6377274#2.83 -6377274#1 -6377274#1.17 -6377274#1.27 -6377274#0 -6377274#0.5 698805191#0 698805191#0.5 698805191#1 698805191#2 698805190 698805190.31 -517583963#3 -517583963#3.30 -517583963#2 -517583963#2.22 -517583963#1 -517583963#1.13 -517583963#1.28 -517583963#1.48 -517583963#0 -517583963#0.2 -517583963#0.16 -517583963#0.29 24054271 24054271.10 24054271.15 24054271.19 -698994085#1 -195433871#1 -195433871#0 -618326398#3 -618326398#2 -618326398#1 -618326398#1.45 -618326398#0 -618326398#0.5 -227756442#2 -227756442#2.6 -227756442#1 -227756442#1.24 -227756442#0 -227756442#0.6 184891171 184891171.8 184891171.14 -184891177 -184891166 -22273567#2 -22273567#2.26 -6365504#8 -6365504#8.5 -6365504#7 -6365504#6 -6365504#6.53 -6400775#27 -6400775#27.6 -6400775#26 -6400775#26.2 -6400775#26.21 -6400775#25 -6400775#25.7 -6400775#25.85 -6400775#25.87 -6400775#24 -6400775#24.7 -6400775#24.73 -6400775#23 -6400775#22 -6400775#21 -6400775#21.9 -6400775#21.26 -6400775#21.31 -6400775#21.41 -6400775#20 -6400775#20.16 430285892 430285892.5 430285892.7 430285892.18 430285892.32 430285892.49 430285892.74 430285892.89 -430174922#3 -430174922#3.25 -430174922#3.108 -430174922#2 6329145#0 6329145#1 6329145#1.0 6329145#1.10 6329145#1.33 6329145#1.46 6329145#1.58 6329145#1.67 6329145#2 -6400775#16 -6400775#15 -6400775#15.27 -6400775#15.60 -6400775#15.68 -6400775#15.72 -6400775#15.75 -6400775#14 -6400775#13 -6400775#13.4 -6400775#12 -6400775#11 -6400775#10 -6400775#10.91 -6400775#10.107 -6400775#9 -6400775#9.3 -6400775#8 -6400775#8.2 -6400775#7 -6400775#7.19 -6400775#7.34 -6400775#7.49 -6400775#7.64 -6400775#7.76 -6400775#6 -6400775#6.34 -6400775#5 -6400775#5.24 -6400775#5.53 -6400775#5.72 -6400775#5.79 -6400775#5.83 -6400775#5.99 -6400775#4 -6400775#3 -6400775#3.15 -6400775#3.35 -6400775#3.44 -6400775#3.53 -6400775#3.63 -6400775#3.76 -6400775#3.90 -6400775#3.101 -6400775#3.112 -6400775#3.121 -6400775#2 -6400775#2.9 -6400775#2.16 -6400775#2.23 -6400775#2.29 -6400775#1 -6400775#1.10 -6400775#1.28 -6400775#1.38 -6400775#1.49 -6400775#1.59 -6400775#0 -6400775#0.3 -6400775#0.8 24221419#0 24221419#0.12 24221419#0.22 24221419#0.35 24221419#0.47 24221419#1 24221419#1.10 24221419#2 24221419#2.4 24221419#2.15 24221419#2.26 24221419#2.38 24221419#2.49 24221419#3 24221419#4 24221419#4.8 24221419#4.15 24221419#4.24 24221419#4.32 24221419#4.41 24221419#4.49 24221419#4.57 24221419#4.69 24221419#4.82 24221419#4.94 24221419#4.100 24221419#4.109 24221419#4.119 24221419#4.127 24221419#5 24221419#5.9 24221419#5.16 24221419#5.22 24221419#5.29 -190579762#18 -190579762#18.4 -190579762#18.5 -190579762#18.14 -190579762#18.28 -190579762#18.50 -190579762#18.74 6402116#1 6402116#1.46 6402116#1.57 6402116#1.69 6402116#1.82 6402116#1.97 6402116#1.112 6402116#1.123 6402116#1.135 6402116#1.161 6402116#1.185 6331637#0 6331637#0.22 6331637#0.37 6331637#1 6331637#1.3 6341488#19 6341488#20 6341488#20.12 6341488#20.21 6341488#20.29 6341488#20.37 6341488#21 6341488#21.18 6341488#21.29 6341488#21.39 6341488#21.77 6341488#21.92 6341488#21.103 6341488#22 6341488#22.9 6341488#22.25 6341488#22.36 6341488#22.42 6341488#22.47 6341488#22.51 6341477#0 6341477#0.24 6341477#0.34 6341477#0.48 6341477#0.69 6341477#0.82 6341477#1 6341477#1.20 6341477#1.35 6341477#1.51 6341477#1.68 6341477#1.85 6341477#2 6341477#2.5 6341477#2.28 6341477#2.51 6375836#6 6375836#6.3 6375836#6.7 6375836#6.14 6375836#6.27 6375836#6.34 6375836#6.41 6375836#6.52 6375836#6.64 6375836#6.86 6375836#6.96 6375836#6.105 6347422#0 6347422#0.18 6347422#0.27 6347422#0.35 6347422#0.47 6347422#0.61 6347422#0.78 6347422#0.91 6347422#0.125 6347422#0.146 6339933#0 6339933#0.25 6339933#0.40 6339933#0.51 6339933#0.95 6339933#1 6407092#1 6407092#1.16 6407092#1.31 6407092#1.38 6407092#1.52 6407092#1.79 6407092#1.106 -6375836#8 -6375836#8.6 -6375836#8.12 -6375836#8.17 -6375836#8.27 -6375836#8.46 -6375836#8.53 -6375836#8.59 -6375836#8.66 -6375836#8.74 -6375836#8.81 -30734874#10 -30734874#10.9 -30734874#10.22 -30734874#10.43 -30734874#10.62 -30734874#9 -30734874#9.8 -30734874#9.18 -30734874#8 -30734874#8.26 -30734874#8.39 -30734874#7 -30734874#7.27 -30734874#7.41 -30734874#6 -30734874#6.33 -30734874#6.53 -30734874#5 -30734874#5.22 -30734874#5.36 -30734874#5.51 6341034 6341034.18 6341034.29 6341034.36 6341034.52 6341034.61 6341034.73 6341034.79 6341034.85 6341034.108 6341034.118 6341034.131 6341034.152 6341034.171 6341034.186 6341034.196 -6385200#4 -6385200#4.10 -6385200#4.17 -6385200#4.24 -6385200#4.30 -6385200#4.63 -6385200#4.72 -6385200#4.79 -6385200#3 6394735#0 6394735#0.15 6394735#0.22 6394735#0.31 6394735#1 6394735#1.13 6394735#1.27 6394735#1.36 6394735#1.42 6394735#1.71 6394735#2 6394735#2.0 6394735#2.9 6394735#2.20 -6338076#7 -6338076#6 -6338076#6.14 -6338076#6.32 -6338076#6.45 -6338076#6.110 -6338076#5 -6338076#5.11 -6338076#4 -6338076#4.4 -6338076#4.13 -6338076#4.60 -6338076#4.67 -6338076#4.75 -6338076#4.85 -6338076#4.120 -6338076#4.141 -6338076#4.156 -6338076#3 -6338076#3.16 -6338076#3.41 -6338076#3.65 -6338076#3.77 -6338076#2 -6338076#2.18 -6338076#2.33 -6338076#2.39 -6338076#2.50 -6338076#2.65 -6338076#2.79 -6338076#2.91 -6338076#2.103 -6338076#2.111 -6338076#2.121 -6338076#2.130 -6338076#2.138 -6338076#1 -6338076#1.9 -6338076#1.19 -6338076#1.29 -6338076#1.43 -6338076#0 -6338076#0.28 -6338076#0.35 -6338076#0.44 -6338076#0.51 -6338076#0.59 -6338076#0.66 -6338076#0.81 -6338076#0.90 -6338076#0.96 -6338076#0.120 -6338076#0.129 -6338076#0.138 -6382510#0 -6382510#0.11 -6382510#0.20 -6382510#0.26 -6382510#0.33 -6382510#0.39 -6339085#7 -6339085#7.29 -6339085#7.47 -6339085#7.68 -6339085#7.87 -6339085#7.110 -6339085#6 -6339085#5 -6339085#5.13 -6339085#5.24 -6339085#5.39 6338567#11 6338567#12 -190579811#1 -190579811#1.12 -190579811#1.20 -190579811#1.36 -190579811#1.50 -190579811#1.69 -190579811#1.82 -190579811#1.101 -190579811#1.120 -190579811#1.121 -11043363#4 -11043363#4.9 -11043363#4.16 -11043363#4.34 -11043363#4.41 -11043363#3 -11043363#3.7 -11043363#2 -11043363#1 -11043363#0 7857575#0 7857575#0.10 7857575#0.24 7857575#0.39 7857575#0.57 7857575#0.75 7857575#0.88 7857575#0.126 7857575#0.144 7857575#0.146 7857575#0.162 7857575#0.184 7857575#0.212 7857575#0.218 7857575#0.224 7857575#0.229 7857575#0.241 7857575#0.275 7857575#0.303 7857575#0.315 7857575#0.324 7857575#0.326 7857575#0.339 7857575#0.350 7857575#0.357 7857575#0.360 7857575#0.410 7857575#1 7857575#1.42 7857575#1.66 7857575#1.85"/>
</vehicle>
</routes>
