<?xml version="1.0" encoding="UTF-8"?>
<routes xmlns:xsi="http: // www.w3.org/2001/XMLSchema-instance" xsi:noNamespaceSchemaLocation="http: // sumo.dlr.de/xsd/routes_file.xsd">
<vType id="veh_passenger" vClass="passenger"/>

<vehicle id = "veh0" type= "veh_passenger" depart="0" >
<route edges =" -45342801#4 -45342801#3 -45342801#2 -45342801#1 -45342801#0 45342798#2 45342798#3 45342798#4 45342798#5 45342813#0 45342813#1 45342813#2 -45342814#1 44740902#11 44740902#12 44740902#13 44740902#14 44740902#14.81 44740902#14.94 -874839172#0 -44740943 -313316091#20 951438760#0 951438760#1 -44740929#4 -951438759 44740922#2 44740922#2.25 44740953#0 44740953#2 44740953#3 44740953#4 44740953#5 44740953#6 44740953#7 44740949#2 -44740919#1 -44740919#0 44740920#8 -313316091#0 -313316091#0.27 -313316091#0.72 -313316091#0.80 -971495601#9 -971495601#9.28 -971495601#8 -971495601#7 -971495601#6 -971495601#5 -971495601#3 -971495601#1 -971495601#0 -313316086 -44739144#26 -44739144#24 -44739144#22 -44739144#21 -44739144#20 -44739144#19 -44739144#19.14 -44739144#18 -877398366#21 -877398366#20 -877398366#19 -877398366#18 -877398366#17 -877398366#17.7 -877398366#16 -877398366#15 -877398366#15.29 -877398366#14 -877398366#14.72 -877398366#13 -671191680#14 -671191680#13 -671191680#11 -671191680#9 -671191680#8 -671191680#6 -896786326#1 -896786326#0 -896786328#0 -896786328#0.177 -951951638#10 -951951638#10.18 -951951638#9 -951951638#8 -951951638#7 -951951638#5 -951951638#4 -951951638#3 -951951638#2 -951946794#1 -951946794#0 951946792#1 896786337#8 896786337#8.8 -951887683 -951887684 -951887682#6 -951887682#5 -951887682#4 -951887682#3 951887692 -951887691#0 -951887682#0 -951887700#14 -951961240#3 -951961240#1 -951961245 951891772#0 -951891773 -951891771#0"/>
</vehicle>
<vehicle id = "veh1" type= "veh_passenger" depart="0" >
<route edges =" 45342801#5 45342801#5.32 902433317#3 902433317#4 902433317#6 902433317#7 902433317#8 902433317#8.29 951368593#1 972507120#2 45342812#0 45342812#1 45342811#2 45342811#2.66 45344273#23 45344273#23.11 45344273#24 -897252873#2 -897252873#1 -897252873#1.42 -897252873#0 -897252873#0.25 897252876#4 45344320#2 45344320#3 -45344331#4 45344327#1 903341090 -45344335#4 -950235690#1 -950235690#0 -950235690#0.14 700254525#11 700254524#0 700254523 -700254525#0 45344272#4 950233988#0 45344283#9 45344283#10 45344283#10.15 45344283#10.46 45344283#10.69 45344283#10.88 45344283#10.150 45344283#10.196 45344283#10.260 45344283#10.377 45344283#10.468 45344283#10.514 670655885 670655885.12 896892975 971495602#12 971495602#12.26 971495602#12.77 951442813 951442812#0 -896786335#50 -896786335#49 -896786335#48 -896786335#48.15 -896786335#47 -896786335#46 -896786335#44 -896786335#44.9 -896786335#44.71 -896786335#43 -896786335#42 -896786335#42.22 -896786335#41 -896786335#40 -896786335#39 -896786335#39.27 -896786335#37 -896786335#36 -896786335#34 -896786335#33 -896786335#32 -896786335#32.17 -896786335#31 -896786335#31.22 -896786335#30 -896786335#29 -896786335#29.17 -896786335#28 -896786335#27 -896786335#27.19 -896786335#26 -951995494#1 -951995491#2 -951995491#1 -951995491#0 -896786266#12 909024250#0 909024250#1 909024250#2 909024250#4 909024250#5 909024250#6 909024239#0 909024239#1 909024239#1.17 909024239#2 909024239#2.40 -951983585 -951975994 -896786324#1 -896786324#0 -896786324#0.19 -896786324#0.132 -896786324#0.177 951951639#0 951946803#0 951946795#1 951946795#2 951946795#3 951946795#4 951946795#6 951946795#7 951946795#9 951946795#10 951946795#11 951946795#11.34 951946795#11.40 951946795#11.45 896786337#10 896786337#10.21 -951887700#20 -951887700#19 -671756019#4 -951961235 951961234#1 -951878265#2 -951878265#1 -951878265#0 951878264#2 -951878263#3 -951878266#4 -951878266#4.37 -951878266#2 -951878266#1 -951878266#1.39 -951878266#1.47"/>
</vehicle>
<vehicle id = "veh2" type= "veh_passenger" depart="0" >
<route edges =" 951370989 951370989.40 951370989.47 951370989.53 951370989.56 951370989.62 951370989.64 951370989.67 -902433320#1 -902433320#0 902433321#2 45342799#21 45342809#0 45342809#1 45342809#2 45342809#3 45342809#4 45342809#5 45342809#6 45342809#7 45342809#8 44740885#10 -45342826#1 -45342826#0 45342825#1 45342825#2 45342828#0 45342828#1 45342828#1.100 -45344273#6 -45344273#6.40 -45344273#6.59 -951384598#3 -951384598#2 -951404491 -951404491.16 -951404491.28 -951404491.40 -951404491.51 -951384599#0 700249213#9 700249213#10 700249213#11 45342808#10 45342808#11 45342808#11.24 45342808#12 -897252871 -897252870 -45344310#2 -45344310#1 -45344310#0 -45344310#0.10 -45344310#0.18 -45344310#0.30 -45344310#0.41 -45344310#0.52 971495602#8 971495602#8.24 971495602#8.86 -313316104#6 -45378650#5 -45378650#5.11 -45378650#4 45378645#0 45378645#0.44 -908846596#3 -908846596#2 45378650#1 -908846593 -908846593.73 908560901#8 908560901#8.23 908560901#8.56 -313316104#0 -313316082 -45378649#12 896786296#0 896786296#1 896786296#1.36 -896786262#6 -896786262#6.15 -896786262#5 -896786262#4 -896786262#4.31 -896786262#3 -896786262#3.9 -896786262#1 -896786262#0 -896786262#0.33 -896786262#0.115 -896786260#1 -896786260#1.5 -896786260#0 -896786260#0.52 896786257#4 909024248 909024248.50 -45378665#3 -45378665#3.29 -45378665#3.50 -45378665#2 -45378665#2.36 -45378665#1 -45378665#0 -45378665#0.39 -45378665#0.75 -896786335#14 -896786335#14.27 -896786335#13 -896786335#12 -896786335#12.15 -896786335#11 -896786335#10 -896786335#10.38 -951976010#1 -951976011#0 896786321#2 -896786320#3 -896786320#3.5 -896786320#1 -896786320#0 -896786316#3 -896786316#2 -896786316#1 -896786316#1.33 -896786314 -951930663#1 -951930663#0 -877395784#11 -877395784#11.58 951946825#0 951946825#1 -951946816#4 951946844 877399011#1 951946810#2 -896786337#14 -896786337#14.40 -896786337#14.111 -952365020 -952365021 -951878231#2 -951951643#6 -951951643#5 -951951643#4 -951951643#3 -951951643#2 876509484#2 -951951642#1 -951951642#0 -951878263#5 -951878269#15 -951891772#2 -951891774 951891771#2 951878270#2 877401978#0 877401978#1 951878266#0"/>
</vehicle>
<vehicle id = "veh3" type= "veh_passenger" depart="3605" >
<route edges =" -45342801#4 -45342801#3 -45342801#2 -45342801#1 -45342801#0 45342798#2 45342809#4 45342809#5 -45342836#2 45342837 45342798#4 45342798#5 45342813#0 45342813#1 -951370984#1 45342816#1 -45342814#2 -45342814#1 44740902#11 44740885#7 -45342841 45342802#2 -45342803#1 -45342803#0 -45342843#2 -45342843#1 -45342843#0 44740957#2 44740902#14 44740902#14.81 44740902#14.94 -44740942#2 -44740942#2.11 -44740942#1 -44740901#0 -313316089 -951438761 44740929#6 44740929#7 44740929#8 44740929#9 44740929#9.20 -951421954 -951421954.20 -44740930#12 44740929#0 44740967#4 -44740922#3 44740953#0 44740953#2 44740940#0 44740940#1 44740940#2 313316091#14 313316091#14.9 45378639#0 45378639#0.48 45378639#1 45378639#1.38 45378639#2 45378639#2.25 45378639#2.39 951439125#0 951439125#0.15 951439125#0.23 951439125#0.33 951439125#1 45378641#1 45378641#1.76 -45378640#3 -45378640#2 -45378658#2 -45378658#1 -45378686#1 -45378686#0 -45378689#2 45378688#0 45378655#0 45378655#1 45378683#2 -45378653#6 -45378685#3 -45378685#2 -45378685#1 45378654#0 45378654#1 45378657#4 -313316091#2 -313316091#2.44 -313316091#1 -313316091#1.32 -313316091#0 -313316091#0.27 -313316091#0.72 -313316091#0.80 45340579#18 45340579#18.164 44740932#0 44740932#2 44740916#8 -668599377#1 -668599377#1.15 668599376#0 668599376#0.34 668599376#1 668599376#2 668599376#2.6 -668599375#0 -909019783 -909019783.98 -45378660#1 -45378660#1.21 -45378660#1.52 -45378660#1.88 -45378660#1.126 -908560900#3 951346855#0 951346855#0.40 951346855#0.55 -951346854 -951346854.30 -951346854.33 -951346854.34 -951346854.36 -951346854.39 -951346854.40 -951346854.42 -951346854.50 -951346854.52 -951346854.54 -951346854.56 -951346854.59 -951346854.61 -951346854.62 -951346854.64 -951346854.65 -951346854.67 -951346854.69 -951346854.101 -908560901#21 -908560901#21.18 -908560901#21.74 -908560901#20 -908560901#20.10 -908560901#20.61 -908560901#20.115 -908560901#19 -908560901#19.77 -908560901#19.104 -896786299#0 -896786298 -45378665#19 896786295#0 896786295#0.19 896786295#1 896786295#1.16 896786295#3 896786295#3.23 -951346847 -951346847.28 -951346847.37 -951346847.45 -951346847.52 -951346847.78 -951346847.86 -951346847.93 -951346847.99 -951346847.106 -951346847.111 -951346847.116 896786282#2 896786282#2.23 896786282#2.28 896786282#2.32 896786282#3 896786282#3.17 896786282#3.44 896786281#0 896786280#1 -896786275#5 -896786275#4 -896786275#3 -896786271#0 -896786272#0 -896786279#0 -896786279#0.19 -896786275#1 -896786275#1.18 896786269#7 896786269#9 909024280#0 909024280#1 909024280#1.17 -909024279#4 -909024279#4.31 909024277#0 909024277#1 909024277#1.11 909024277#2 909024277#2.19 909024277#2.45 -909024274 909024275#1 909024273#3 896786296#18 896786296#18.4 896786296#18.17 -44739144#24 -44739144#22 -896786294#12 -896786294#12.19 -896786294#12.25 -896786294#12.30 -896786294#12.36 -896786294#12.41 -896786294#11 -896786294#11.13 -896786294#10 -896786289#3 -702673217#2 -702673217#1 -702673217#0 -44739144#18 -877398366#21 -877398366#20 -909024264#1 -909024263 -909024263.30 909024265#1 909024265#2 909024265#2.13 909024265#3 671960104#0 671960104#1 671960104#2 671960104#3 671960104#4 671752228#2 671752228#3 -671960101#14 -671960101#13 -671960101#12 -671960101#10 44740913#4 44740913#5 -44739144#12 -44739144#11 -44739144#10 -904371478#2 -904371478#2.24 -904371478#1 -904371478#1.6 904371476 904371475#1 -904371474#3 -904371480 -904371480.19 -904371480.46 -904371480.53 -904371480.60 -904371480.68 -904371480.92 -904286388#3 -904286388#3.17 904371472#0 904371471 904371473#3 -904286388#0 -904286386#6 -904286386#4 -904286386#4.23 904371470#1 904286384#1 904286384#1.16 904286383#1 896786290#2 877396860#14 877396860#14.38 877396860#15 877396860#16 909024290 909024290.75 -909024293#0 -909024294#0 -909024294#0.55 877396860#18 877396860#18.31 896786289#0 896786289#0.42 896786289#1 896786289#1.39 -877398366#18 -877398366#17 -877398366#17.7 896786294#0 896786294#0.33 896786276 896786276.34 896786277#2 896786277#3 -909024256#0 -909024256#0.28 -896786279#4 -896786279#4.27 -896786279#3 -896786279#3.22 -896786269#4 896786267#1 896786267#1.28 896786267#2 -877398366#13 -671191680#14 -671191680#13 -671191680#11 904371466 904371466.63 904371465#2 904371464 -896786325#0 -896786325#0.9 -896786325#0.61 -896786325#0.67 -896786325#0.74 -896786325#0.80 -896786325#0.89 -671191680#6 -896786326#1 -896786327#1 -896786327#1.48 -896786327#1.55 -896786327#1.60 -896786327#1.64 -896786327#1.68 -896786327#1.74 -896786327#1.124 -896786327#1.170 -896786327#1.205 -896786327#1.211 -896786327#0 877395784#22 877395784#22.56 877395784#23 -952002224#7 -952002224#7.17 -952002224#7.71 -952002224#6 -952002224#5 -952002224#5.5 951973430#0 -951951638#4 951946798#1 951951639#10 951951639#11 951951639#13 951946794#1 -951951638#1 -951951638#0 896786337#5 896786337#5.11 896786337#6 896786337#7 896786337#8 896786337#8.8 -951887683 -951887684 -951887682#6 951887695#5 -951887700#19 -951887700#18 -951887690 951887688#2 -951887686#0 -951887682#4 -951887682#3 -951887682#2 -951887682#2.37 -951887682#1 -951887682#1.2 -951887682#1.5 -951887682#0 -951887700#14 -951961240#3 -951961240#1 -951961245 951891772#0 -951891773 -951891771#0"/>
</vehicle>
<vehicle id = "veh4" type= "veh_passenger" depart="3605" >
<route edges =" 45342801#5 45342801#5.32 902433317#3 951421968#0 951421968#1 951421968#1.20 951421968#2 951421968#2.9 -45344271#34 -45344271#32 951368595#0 951368595#1 951368595#1.17 951368595#1.34 902433317#8 902433317#8.29 951368593#1 972507120#2 972507120#3 -951366780#1 -951366780#1.2 -951366780#1.41 951366779#0 951366779#1 45342812#1 45342811#2 45342811#2.66 45344273#23 45344273#23.11 45344273#24 -897252873#2 -897252873#1 -897252873#1.42 -897252873#0 -897252873#0.25 897252876#4 897252876#5 897252876#5.34 897252876#6 897252876#7 897252876#8 897252876#9 45344324#0 -45344329#2 897252884#0 897252884#1 897252884#1.14 897252884#1.26 897252884#1.51 897252884#1.72 897252884#1.89 897252884#1.109 897252884#1.138 897252884#1.166 897172091#3 897172091#4 -951381433 -951381433.36 -951381433.38 -951381433.39 -951381433.41 -951381433.42 -951381433.44 -951381433.48 -951381433.49 -951381433.50 -951381433.52 -951381433.53 902433295#5 -951404486#1 -951404486#0 45344333#2 45344331#2 45344331#3 45344327#1 -897172091#10 -897172091#9 -897172091#8 699875133 -699875130#0 -699875130#0.26 699875131#1 699875131#2 -950400194#2 -950235689#1 -950400192#0 950400193#1 -950400194#0 -950400195#1 -950400195#1.7 -950400195#1.14 -950400195#1.22 -950400195#1.28 -950400195#1.34 -950400195#1.42 -950400195#1.48 -950400195#1.59 -950400195#1.74 -950400195#1.82 -950400195#0 700254525#6 700254525#8 700254525#9 700254525#11 700254525#12 700254525#12.12 950235692#0 -950235694#2 -950732875#1 -950235702 -950235695#1 -950235697#2 -950235697#0 -950235692#2 -950455053 -950235703#0 -950235703#0.13 -950235703#0.32 -950235703#0.55 -950235703#0.71 -950235703#0.86 -950235703#0.97 -950235703#0.108 950235699#5 -950238177#1 -950238177#1.15 950235705#0 950235705#1 950235705#1.22 950235705#1.46 950235705#1.60 950235705#1.74 950235705#1.85 950455048#5 45344273#30 45344273#30.8 45344273#30.25 45344273#30.39 897252882#1 897252882#1.10 897252882#2 897252882#2.30 897252882#2.48 950755157 897252886#4 897252886#4.10 897252886#4.25 897252886#4.39 45344273#32 45344273#32.22 45344273#32.44 45344273#33 950780326#0 950780326#0.30 950780326#0.63 950780326#1 950780326#1.17 950780326#1.24 950780326#1.29 950780326#1.45 950780326#1.86 -903341095#1 -903341095#0 -45344271#17 -950806855#5 -950806855#3 -45344277#1 -45344277#0 45344276#3 902433292#0 902433292#0.18 902433292#1 902433292#1.12 -903373125#2 950235713#0 950759344 950759344.25 950759344.36 950759344.47 -950235714#0 -950235714#0.32 -45344271#22 -45344271#22.29 -45344271#21 897252886#0 897252886#0.21 897252886#0.44 897252886#1 897252886#1.30 897252886#1.51 950239855 -950755152#2 -950755152#2.42 -950755152#2.59 -950755152#2.65 950755151 950755151.35 950755151.45 950755151.55 45344271#26 45344271#26.18 45344271#27 950757969#0 950757969#1 950757969#1.14 950757969#2 950757969#2.4 950757969#2.8 950757966#0 -950757965 -950235712#1 -950235712#1.23 -950235712#1.27 -951132942#8 -951132942#7 -951132942#7.6 -951132942#6 -950757967 950757969#4 950757968 -951132942#3 -951132942#2 950759350#0 950235713#3 -950757960#0 -902433292#8 -902433292#7 -902433292#6 -902433292#5 876614905#0 876614905#0.63 876614905#1 950235717#0 950235717#0.7 950235717#0.15 950235717#1 950235719#0 950235719#0.14 -951990402 -951990402.22 -951990402.25 -951990402.27 -951990402.29 -951990402.30 950235717#3 950235717#3.7 950235717#3.9 950235717#3.12 950235717#3.15 -902822419#6 -902822419#6.19 -902822419#6.57 950872171#1 950872171#1.7 950872171#1.16 -950806849#0 -950806849#0.8 -950806849#0.17 -950235727#7 -950235727#6 -950235727#5 -950235727#4 -950235727#3 -950806852#2 -950806852#2.18 -950806852#2.27 -950806852#2.38 -950806852#2.43 -950806852#2.48 -950806852#1 -950806852#0 -950806852#0.5 -950806852#0.10 -950806852#0.15 -950806852#0.19 -950806852#0.24 45344277#6 45344277#7 -950235723#1 950806860#1 950806850#1 45344277#9 897252880#6 897252880#6.90 897252880#7 897252880#7.68 950238184#0 950238184#1 -950780324#0 -950780324#0.30 -950238181#0 950238180#5 950238180#5.14 -950238178#0 897252880#9 -45344273#40 -45344273#38 -45344273#38.31 -45344273#38.43 -45344273#38.54 -950235701 -950235699#1 -950235699#0 -950235700#2 -950235700#1 -950235700#0 -700254524#1 700254523 -700254525#0 45344272#4 950233988#0 -45344283#8 -45344283#7 -45344283#7.3 950233989#0 950233989#1 950233989#1.12 950233989#1.21 700278833#5 700278833#5.13 700278833#5.27 700278833#6 700278833#6.17 700278833#6.73 700278833#6.117 45344284#0 45344284#1 -950553573 -950238193#1 -950238193#0 45344280#14 45344280#14.13 45344280#15 -45344283#4 -45344336#2 950553578#1 950553577#0 950553577#0.25 950553577#1 950553577#1.2 950553577#1.9 950553577#1.16 950553577#1.22 950553577#1.27 950553577#1.34 950553577#1.44 950238191 950238191.37 -45344283#0 -950641816#13 -950641816#13.116 -950641816#12 -950641816#12.38 -950641816#11 -950641816#10 950235732#0 950235732#1 950235733#1 950235733#2 950235733#2.14 950235733#2.26 950235733#2.39 950235733#2.49 950235729#3 950235729#4 950235729#5 -45344285#4 950641812#0 -950641811#1 -950641811#1.17 -950641811#1.24 -950641811#1.33 -950641811#0 -950641811#0.3 -950641811#0.9 950235732#4 950235732#5 950235732#5.16 951077734#0 -950241846#1 -950241846#1.22 951043903 950241823#3 950241823#4 950241823#5 950241818#3 950241818#4 950241818#5 950241818#5.11 950241818#6 950241818#6.9 -950241831#0 950929127#3 950929127#3.14 950929127#4 950929127#4.15 951014858#0 951014858#0.26 951014858#1 951014858#1.48 951014861#0 951014861#1 -950241831#3 951014859 951014859.40 951014859.44 951014859.47 951014859.50 951014859.58 951014859.60 951014859.62 951014859.64 951014868#0 951014868#1 950241823#8 -951014855#2 -950241819#5 -950241819#4 951043907#0 951043907#1 951043907#1.7 951043907#1.10 951043907#1.14 951043907#1.22 951043907#1.27 -950241821#10 -950241821#10.5 -950241819#2 -950241819#1 951014869 950241821#13 -950241818#0 -45344271#3 -45344271#3.75 -950241848#5 -950241848#5.35 950241847#0 950241847#1 950241847#2 45344284#9 45344271#6 45344271#6.35 45344271#7 45344271#7.34 -950641813#1 -950641813#1.14 -950641813#1.27 -950641813#1.43 -950641813#1.59 -950641813#0 -950641813#0.15 -950641813#0.21 -950641813#0.27 -950241847#5 -950241847#5.4 -950241847#5.12 -950241847#5.18 -950241847#5.23 -950241847#4 -950238186#0 950238187 45344282#3 45344282#4 -45344281#2 950241866#9 -45344284#5 -45344284#4 -950238192#4 -950238192#3 -950241233#1 -950241233#0 -45344280#9 -45344280#9.5 -45344280#8 -45344280#8.26 -45344280#7 950241224#0 950241224#0.21 950241224#0.25 950241224#0.29 950241224#0.34 950241224#0.39 950241224#0.43 950241224#0.53 -950390890 -950390890.10 -950390890.15 -950390890.19 -950390890.22 950241866#0 950241866#1 950241866#1.32 -950394091#1 -950241868#1 -950241868#1.8 -950241868#1.33 950394090#0 -950241869#0 -950241869#0.28 -950241869#0.37 950241866#5 -950241865#0 950241848#0 950241857#3 950241857#3.27 950241857#3.51 950241857#4 -950243393#0 45344282#7 -897252877#2 -897252877#2.49 950243392#0 950241209#3 950241209#3.37 950241209#4 950241209#4.21 950241209#5 950241209#5.13 45344280#2 45344280#2.21 -950241220#4 950241223#0 950241223#1 950241223#1.14 950241223#1.30 950241223#1.47 -950392118 -950392118.5 -950392118.8 -950392118.10 -950392118.14 -950392118.25 -950392118.28 -950392118.31 950392121#1 -951132943 -951132943.7 -950241220#1 -950241220#0 -950241220#0.25 -950241220#0.78 -700278833#0 -700278833#0.27 897252879#17 897252879#18 897252879#18.162 897252879#19 897252879#19.29 897252879#20 897252879#21 897252879#21.85 897252879#22 897252879#23 896892972 896892973 896892973.27 896892973.31 -896786335#50 -896892981#13 -896892981#13.5 -896892981#13.13 -896892981#12 -896892981#10 -896892981#10.8 951354779 951354779.19 951354779.26 951354779.35 951354779.44 -896786335#46 -896786335#44 -896786335#44.9 -896786335#44.71 -896786335#43 -896786335#42 -896786335#42.22 -896786335#41 908869237 908869237.8 908869237.20 908869237.48 -908869250#3 -908869238 -908869238.92 -896786335#39 -896786335#39.27 -896786335#37 -896786335#36 -951349917#1 -951349917#1.14 -951349917#1.29 -951349917#1.41 -951349917#1.59 -951349918 876614662#9 876614662#9.52 -951354773#3 -951354773#3.20 -951354773#3.23 -951354773#3.26 -951354773#3.28 -951354773#3.30 -951354773#3.32 -951354773#3.34 -951354773#3.38 -951354773#3.40 -951354773#3.43 -951354773#3.45 -951354771#1 -951355290 -951355290.28 -951355290.30 -951355290.31 -951355290.32 -951355290.33 -896893028#3 -896893028#3.26 896893016#0 896893016#1 896893015#2 896893015#3 -896893018#0 -877388728#13 -877388728#13.55 -877388728#11 -896893005#1 -951995485 896893004#2 896893004#3 896893004#3.24 896893004#4 896893002 896893002.42 -896786335#22 -896893013#7 -896893013#7.29 -896893013#7.87 -896893013#6 -896893013#6.15 -896893013#5 -896893013#5.11 -896893013#5.13 -896786308#6 -896786308#6.17 -896786308#4 896893000 896893000.62 896893000.89 -896786307#6 -896786307#6.13 -896786307#6.32 877388976#0 877388976#0.43 877388976#0.77 877388976#1 877388976#1.12 877388976#1.51 877388976#1.72 896786304#1 896786304#2 896786300#0 896786300#0.23 896893013#0 896893013#0.10 896893013#0.59 896893013#1 896893013#1.26 896893010 896893010.28 896893010.97 896893012#6 896893012#6.21 896893011#1 -896786335#19 -951995495 -909024243#0 909024244#1 909024244#1.7 909024244#1.41 909024244#1.69 909024250#4 -909024245 -909024245.13 -909024245.37 -909024245.57 -896786335#16 -896786335#16.7 -896786335#15 -896786335#14 -896786335#14.27 909024236#1 909024236#1.12 909024236#1.82 909024239#1 909024239#1.17 -909024237#1 -909024237#1.34 -909024237#1.71 -909024237#1.74 -909024237#1.78 -909024237#1.82 877398366#1 877398366#1.15 877398366#2 877398366#2.36 877398366#3 -951995475#3 -951995475#2 896786292#0 896786292#0.10 896786292#2 896786292#2.23 896786292#2.61 896786292#3 -896786287#1 -951995479#0 -896786286#1 -896786286#1.14 -896786286#0 -896786286#0.12 877398366#9 877398366#11 877398366#11.20 896786284#1 -877396860#9 -877396860#9.4 -877396860#8 -951995474 904371460#1 904371459 904371459.11 904371459.27 -877398366#6 -904371457 904371460#4 904371460#4.17 904371460#4.32 904371460#5 -896786328#3 -896786328#3.70 -896786328#2 -896786328#2.49 896786325#2 896786325#3 -896786323#0 -896786323#0.137 -896786323#0.139 -896786323#0.141 -896786324#0 -896786324#0.19 -896786324#0.132 -896786324#0.177 951951639#0 951946803#0 951946795#1 951946795#2 951946795#3 951946795#4 951946795#6 951946795#7 951946795#9 951946795#10 951946795#11 951946795#11.34 951946795#11.40 951946795#11.45 896786337#10 896786337#10.21 -951887700#20 671756019#0 -951961251#1 -951961251#0 876509484#8 876509484#8.5 951961233#0 951961233#0.22 951961233#0.27 951961233#0.32 951961233#0.37 951961233#1 -951878265#2 -951878265#1 -951878265#0 951878264#2 -951878263#3 -951878266#4 -951878266#4.37 -951878266#2 -951878266#1 -951878266#1.39 -951878266#1.47"/>
</vehicle>
<vehicle id = "veh5" type= "veh_passenger" depart="3605" >
<route edges =" 951370989 951370989.40 951370989.47 951370989.53 951370989.56 951370989.62 951370989.64 951370989.67 -902433320#1 -902433320#0 902433321#2 45342799#21 45342809#0 45342809#1 45342809#2 -45342834#2 -45342834#1 -45342834#0 44740902#8 -45342798#6 -45342798#5 45342818#0 45342818#1 45342836#0 45342836#2 45342809#6 45342809#7 45342809#8 45342809#9 -45342821#1 -45342821#1.44 -45342822#2 -45342822#1 -45342822#0 -45342831#2 -951417482#2 -951417480#1 -951417480#0 -45342805#3 951417481 -951417482#0 -45342805#0 -45342805#0.29 897252872 897252872.36 45342833#0 45342833#1 45342833#2 45342824#1 45342824#2 951366786 45342833#4 45342823#1 45342823#2 45342828#1 45342828#1.100 -951384596#1 -951384596#1.24 -951384596#1.31 -951384596#1.36 -951384596#1.46 -951384596#1.54 -951384596#1.60 -951384596#1.72 -951384596#1.107 -951417467 -951417467.14 -951417467.15 -951417467.17 -951417467.18 -951417467.21 -951417467.23 -951417467.24 -951417467.25 -951404491 -951404491.16 -951404491.28 -951404491.40 -951404491.51 -951384599#0 700249213#9 700249213#10 -951404492 700249212#3 45342808#9 45342808#10 951370965#0 951370965#0.26 951370965#0.30 951370965#0.33 951370965#0.37 951370965#0.40 -951417471 -951417471.23 -951417471.42 45342808#12 -897252871 -897252870 -45344310#2 -45378639#12 -45378639#12.97 -951404475 -951404475.33 -951404475.43 -951404476 -951404476.16 -951404476.32 -951404476.50 -951404476.59 -951404476.68 -951404476.84 -951404476.93 -951404476.101 -951404476.106 -951404476.113 971495602#7 971495602#7.32 971495602#7.56 971495602#8 971495602#8.24 971495602#8.86 -313316104#6 -45378650#5 -45378650#5.11 45378646#0 45378646#0.20 45378646#1 -908846596#4 -908846596#3 -908846595#1 908846594#0 45378650#0 45378650#0.11 45378650#1 -908846593 -908846593.73 908560901#8 908560901#8.23 908560901#8.56 -313316104#0 -313316082 -45378649#12 896786247#0 896786247#0.38 896786247#1 896786247#2 896786247#2.15 -908869242 -908869242.9 -908869242.25 -908869243#0 -908869244#0 -908869250#1 -908869250#0 -908869250#0.11 -908869250#0.41 -45378649#10 -45378649#10.20 -951355292 -951355298#1 -951355298#1.5 -951355298#1.10 -951355298#0 -951355298#0.4 951354759#3 951354759#4 951354759#4.40 -896786262#4 -896786262#4.31 -896786262#3 -896786262#3.9 -896786258#4 -896786258#2 -896786258#2.22 -896786258#0 -896786259#1 -896786259#1.16 -896786259#1.36 -896786259#1.39 -896786259#1.42 -896786259#1.44 -896786259#1.47 -896786259#1.55 -896786259#1.98 -896786260#6 -896786260#6.19 -896786260#4 -896786260#4.11 896786257#1 896786266#5 -896786260#0 -896786260#0.52 896786257#4 909024248 909024248.50 -45378665#3 -45378665#3.29 -45378665#3.50 -45378665#2 -45378665#2.36 -45378665#1 -45378665#0 -45378665#0.39 -45378665#0.75 -896786300#3 -896786300#3.27 -896893012#1 -896893012#0 -896893012#0.11 -896786303#4 -896786303#4.22 -896786303#3 896786302#0 896786302#0.18 896786302#0.77 896786302#1 896786304#6 -951983587#6 -951983587#5 -951983587#4 -951983587#4.5 -951983587#4.15 -951983587#4.17 -951983587#4.21 -951983587#4.25 -951983587#4.34 951983616#0 951983616#0.5 951983616#0.7 951983616#0.11 -951983619 -951983619.37 -951983619.41 -951983619.43 -951983619.47 -951983620#0 951983592#1 951983592#3 951983592#3.4 951983592#3.8 951983592#3.24 951983592#3.30 -951988579 951988578#1 -951988576#1 -951988576#0 896786308#0 896786308#0.23 896786308#1 896786308#1.21 896786308#2 896786308#2.17 -877388976#0 -877388976#0.15 -877388976#0.50 -896786307#4 -896786307#4.9 -896786307#2 -896786307#2.7 -896892994#1 -896892994#1.10 -896892994#1.34 -896892994#0 -896786310#1 -896786310#1.7 -896786310#1.40 -896786310#1.58 896892995#0 896892995#1 896892995#1.18 -877388728#7 -877388728#5 -877388728#5.9 -877388728#5.30 -951988590#10 -951988590#10.68 -951988590#10.72 -951988590#10.76 -951988590#10.79 -951988590#10.101 -951988590#10.103 -951988590#10.106 -951988590#10.110 -951988590#10.147 -951988590#10.151 -951988590#10.156 -951988590#10.160 -951988590#9 -951988590#9.14 -951988590#9.23 -951988590#9.30 -951988590#8 -951988594 896786309#11 896786309#13 896786309#14 951988595#0 951988595#0.112 951988595#1 951988595#1.6 951988595#1.16 951988595#2 -951930617#7 -951930617#6 951930620 896786309#17 -951935274#7 -951935274#6 -951988607#2 951988606#0 -951988604#1 -951988603#1 -951988605#1 -951988605#0 951988604#4 -951930622 951930618#0 951930618#0.26 951930618#0.29 951930618#0.32 951930618#0.35 951930618#1 -951983608#2 951983609#0 951983611#1 951983611#3 -951983608#0 -951983608#0.19 -951983608#0.23 -951983608#0.26 896786310#8 896786310#8.5 877389028#0 877389028#0.17 877389028#1 877389028#1.12 877389028#1.31 -896786310#13 -896786310#12 -896786310#12.9 -896786310#10 -896786310#10.4 -896786310#10.15 -896786310#10.32 -951983616#2 951983617#0 951983617#0.43 877398739#1 -951983587#1 -951983587#0 -951983587#0.39 -951983587#0.45 -951983587#0.51 -951983587#0.56 -896786311#8 896786321#0 896786321#0.46 896786321#0.171 896786321#1 896786321#1.28 896786321#2 896786321#3 896786321#3.48 896786321#3.103 -896786335#8 -896786335#8.39 -896786335#7 951976007 -951976006#1 -951976006#0 -896786315#2 -896786315#0 -877396172#1 -877396172#1.57 -877396172#0 -877396172#0.15 896786313#3 896786313#3.51 896786313#3.88 896786313#3.110 896786313#3.151 896786313#3.164 896786313#3.186 896786313#3.223 896786313#3.237 896786313#3.246 896786313#3.253 -896786312#1 -896786312#1.17 -896786312#1.24 -896786312#0 -896786312#0.11 -896786312#0.35 -896786312#0.60 -896786312#0.135 -896786311#2 -896786311#1 -896786311#1.19 -896786311#0 -896786311#0.35 951983599 -951935291#3 -951935291#3.17 951930682#0 951930682#1 -951930681#1 -951930681#1.3 -951930681#1.6 -951930681#1.9 -951930681#1.12 951935254#2 -951983613#0 951930681#3 951930681#3.13 951983603#0 951983603#0.16 951983603#0.21 951983603#0.25 951983603#0.33 951983603#0.35 951983603#0.37 951983603#0.40 951983603#1 951930680#1 951930680#2 951930680#2.22 951930680#3 951930680#3.7 951930680#4 877396480#1 877396480#2 951935254#0 951935254#0.34 951935254#0.43 951935254#0.53 951935255#0 951935255#1 951935255#1.24 951935255#1.31 951983607 -951935291#1 877389028#11 877389028#11.9 -951935289#1 -951935289#0 951935286#1 -951935287 -951930661#3 -951930661#3.14 -951930661#2 -951930661#0 877395784#7 877395784#8 877395784#8.44 877395784#9 951946815#0 -951946826 951946825#1 -951946816#4 -951946816#2 -951946816#1 951946810#0 951946810#1 951946810#2 -896786337#14 -896786337#14.40 -896786337#14.111 -952365020 -952365021 -951878231#2 951868619#0 951868620#0 -951868611#1 -951868611#0 -951951643#4 -951951643#3 -951951643#2 876509484#2 -951951642#1 -951951648#1 951951649 951878263#7 951878263#8 951878230#4 -951891772#4 -951891772#3 -951891772#2 -951891774 951891771#2 951930613 -951878269#9 -951878269#7 -951878269#6 951891765#0 -951887656#1 951878272#1 951878272#2 -951891763#2 -951891763#1 951891765#3 951887660#5 -951887659#0 951887661#0 951887661#1 951887661#2 951887661#3 951878266#0"/>
</vehicle>
<vehicle id = "veh6" type= "veh_passenger" depart="7210" >
<route edges =" -45342801#4 45342799#23 672813677#0 672813677#0.22 672813677#0.51 672813677#1 672813677#1.14 672813677#1.27 672813677#2 672813677#4 672813677#4.8 -903341082#0 -903341082#0.45 -45342801#2 -45342801#1 -45342801#0 -45342798#1 45342840#0 -45342810#2 -671416444#2 671416443#0 671416443#1 -671416440 -671416442#1 -671416442#0 -671416444#0 45342840#2 -45342839#1 -45342838#2 -45342838#1 -45342838#0 -45342810#0 45342809#5 45342809#6 45342809#7 -45342814#5 -45342814#4 45342803#6 951370984#0 951370984#1 951370984#2 44740902#10 44740902#10.9 44740902#11 -44740885#6 -44740885#5 -44740885#5.33 -44740885#4 671399058#0 671399058#1 671399058#2 -44740901#3 -44740957#5 -671399051#1 -671399051#0 44740942#2 44740942#2.58 -874839172#0 -44740943 -313316091#20 951438760#0 951438760#1 -44740929#4 -44740929#3 -44740929#2 -44740929#1 -44740967#3 -44740930#16 -44740930#15 -44740930#14 -44740930#13 -44740930#12 -44740930#11 -44740922#7 -44740922#6 44740926#0 44740923#2 44740927#17 -44740922#3 44740953#0 44740953#2 44740940#0 44740945#0 44740946#0 44740948#0 -951438765 -313316091#10 -313316091#10.31 45378682#0 45378682#0.48 45378682#1 45378689#1 45378689#2 45378686#0 45378687#0 45378687#1 -45378640#0 45378655#1 45378655#2 -45378684#1 -671178935 -45378685#1 -45378685#0 -45378685#0.42 313316091#5 313316091#5.21 313316091#6 -44739167#15 -44739167#15.17 -44739167#14 -44739167#13 -44739167#12 -44740927#13 -44740927#12 951358802 951358805#1 -44740928#1 -44740926#6 -44739167#10 -44739167#9 102277232#2 102277232#2.138 44739163#14 44739163#15 -44740981#1 -44740981#0 44739156#15 44740985#0 44740987 -44740927#6 -951358798#1 -951358798#1.14 -951358798#0 -951358798#0.10 -951358798#0.14 -951358798#0.17 -951358798#0.19 -951358798#0.21 -951358798#0.22 -951358798#0.24 -951358798#0.36 -951358798#0.39 -951358798#0.41 -951358798#0.42 -951358798#0.45 -951358798#0.47 951366797 951366797.33 951366797.34 951366797.36 951366797.38 951366797.40 951366797.54 951366797.60 951366797.64 951366797.69 951366797.70 951366797.72 951366797.74 951366797.75 951358797#2 951358797#2.23 951358797#3 -951358800#0 -44740918#1 44740931#0 -44740919#0 -951358792 -951358792.26 -951358792.42 -951358792.53 -951358792.66 896892969#18 -971495601#9 -971495601#9.28 -971495601#8 -971495601#7 44740916#12 44740916#13 909019768#0 909019768#0.14 909019768#0.25 -909019765 -909019766#0 909019767#1 909019767#1.24 909019767#1.35 -971495601#5 -971495601#3 -951346855#1 -951346855#1.22 -951346855#1.42 -951346855#1.57 -951346855#0 -951346855#0.7 -951346855#0.23 -908560900#2 -908560900#1 908560901#22 908560901#22.77 908560901#22.89 -971495601#0 -313316086 -44739144#26 -44739144#24 903953326#0 903953326#1 -903953325#3 -903953325#2 -903953325#2.18 -909778547#2 -909778546#1 951346849 -44739144#20 -44739144#19 -44739144#19.14 702673217#0 702673217#1 702673217#2 -896786289#2 -896786289#1 -896786289#1.72 -896786289#0 -896786289#0.7 877396860#20 877396860#20.72 877396860#21 -952002225#1 909024265#3 -44739144#13 -44740913#5 903953323#0 903953323#1 909778559#0 909778559#1 -44739144#10 -44739144#9 -904286388#7 -904286388#7.24 -904286388#6 -904286388#6.28 904371479#0 904371479#0.10 904371479#0.23 904371479#0.35 904371476 904371475#1 -904371474#3 -904371474#2 -904371472#1 -904371472#1.50 904371471 904371469 -904286385#15 -904286385#15.42 904286384#0 -904371470#1 -904371470#0 -904371473#0 -904371474#0 -904371474#0.12 -904286386#2 -877396860#15 -904286384#2 -904286384#2.34 904286383#1 -896786290#1 -896786290#1.17 -896786290#0 -904286385#12 951992355 904286380#0 904286380#1 904286380#1.17 904286380#1.44 877396860#13 896786290#3 896786290#4 896786290#4.40 896786290#5 896786277#0 896786278#0 896786278#0.39 896786278#1 896786267#2 -877398366#13 671191680#15 671191680#15.58 671191680#16 671191680#16.17 671191680#16.20 671191680#16.22 671191680#16.24 671191680#16.31 896786269#3 -896786267#0 -896786267#0.60 -896786267#0.197 -896786267#0.219 -896786267#0.239 -896786267#0.242 -896786267#0.244 -896786267#0.246 -896786267#0.249 896786282#2 896786282#2.23 896786282#2.28 896786282#2.32 896786273#0 896786280#0 896786280#0.19 896786280#0.47 896786280#1 896786280#2 896786280#3 -896786295#6 -896786295#6.9 -896786295#5 -896786295#4 -951347814#1 -951347814#1.43 -951347814#1.47 -951347814#0 -951347814#0.2 -951347814#0.5 909024259#1 909024259#1.34 909024258#0 -951347813#1 -951347813#1.7 -951347813#1.12 -951347813#0 -951347813#0.14 -896786295#1 -896786295#1.28 -896786295#0 -896786295#0.54 -45378665#18 -45378665#17 -45378665#17.13 -45378665#17.39 -45378665#17.57 -45378665#16 -45378665#14 -45378665#14.14 -45378665#14.36 -45378665#13 -45378665#13.39 -876614861#6 -876614861#6.29 -876614861#5 -876614861#4 -951433465 -896786283#3 -896786283#3.11 -896786283#2 -896786283#1 -896786283#1.4 -896786283#1.24 896786269#0 -909024284 -909024284.22 909024289#6 909024289#6.25 -876614861#1 -876614861#0 -876614861#0.36 877396033#1 877396033#1.18 877396033#2 877396033#4 877396033#4.19 877396033#5 877396033#5.33 877396033#7 877396033#7.17 877396033#7.62 877396033#7.73 -909024289#0 -909024289#0.2 -909024289#0.5 -909024289#0.10 951995475#0 951995475#1 951995475#1.6 896786292#0 896786292#0.10 896786291#0 896786291#0.19 -896786288#0 -896786288#0.20 -896786288#0.42 -951995479#1 -896786287#0 -896786287#0.41 -896786286#0 -896786286#0.12 877398366#9 -904371462#2 -904371462#1 -904371462#1.14 -904371462#1.100 -904371462#0 904371463#1 904371463#1.15 -671191680#11 -671191680#9 -671191680#8 -904286371 -904286373#2 -904286373#2.6 -904286373#1 -904286373#0 -904286375#1 -904286372#0 904286373#4 -904286385#6 -904286385#5 -904286385#5.9 904371489#0 671191682#0 -671191681#3 -671191681#3.14 -671191681#2 -671191681#1 -951973436#2 -951973436#0 -951973436#0.3 -951973436#0.8 -877395784#25 -877395784#25.55 -877395784#23 904371492#0 904371492#0.68 904371492#2 904371492#3 904371492#4 904371492#5 -904371456#3 951973471#4 -951973470#0 -904371490#2 -904371490#1 -904371490#0 671191680#5 -896786326#1 -896786326#0 -896786328#0 -896786328#0.177 -951951638#10 -951951638#10.18 -951951638#9 -951951638#8 -951951638#7 -951951638#5 -951973430#0 -952002224#4 -952002224#4.27 -952002224#3 -952002224#3.30 -952002224#3.48 -952002224#3.80 904286410#0 904286410#0.33 904286409#0 904286409#1 904286409#2 904286409#2.7 -951874859#0 951874858#0 -951874860#4 -951874860#3 -904286402#0 -904286410#2 -904286411#3 951874850#0 951874850#1 951874850#1.25 951874850#1.28 951874850#1.31 951874850#1.34 951874850#1.54 951874850#1.57 951874850#1.59 951874850#1.62 -951874849#0 -951874848#0 -952002224#1 896786337#4 896786337#5 896786337#5.11 -951951639#15 -951951639#14 -951946794#0 951946792#1 896786337#8 896786337#8.8 -951887683 -951887684 -951887682#6 -951887682#5 951887686#0 -951887688#2 951887690 -951887700#17 -951887700#17.17 -951887689 -951887688#0 -951887687#0 -951887687#0.5 -951887682#3 951887692 -951887691#0 -951887682#0 -951961243 -951961242#0 -951961240#1 -951961245 951891772#0 -951891773 -951891771#0"/>
</vehicle>
<vehicle id = "veh7" type= "veh_passenger" depart="7210" >
<route edges =" 45342801#5 45342801#5.32 902433317#3 902433317#4 -951370988 -951370988.61 -951370988.66 -951370988.72 45342799#25 45342799#25.7 45342799#25.22 951368597 902433317#7 902433317#8 902433317#8.29 951368593#1 972507120#2 45342812#0 45342812#1 45342811#2 45342811#2.66 45344273#23 45344273#23.11 45344273#24 -897252873#2 -897252873#1 -897252873#1.42 -897252873#0 -897252873#0.25 897252876#4 45344320#2 -45344329#7 -45344329#6 -45344329#5 -45344329#4 902433295#3 45344330#0 45344330#1 45344333#1 45344333#2 -45344331#1 -45344331#0 45344326#3 699875133 -699875130#0 -699875130#0.26 699875131#1 45344335#2 45344335#3 -950235690#1 950235691#0 950235691#0.22 950400191 950400191.10 950400191.18 950400191.24 950400191.29 700254524#0 700254524#1 950235700#0 950235694#0 950235694#1 -950732875#1 -950235702 -950235695#1 -950235695#0 950235699#1 950235701 -45344273#36 -45344273#36.15 -45344273#35 -45344273#35.27 45344278#0 45344278#0.58 45344278#0.62 45344278#0.65 45344278#1 45344278#2 45344278#2.33 45344278#3 -950238182#3 -950238181#2 -950238181#2.23 -950238181#2.28 -950238181#2.32 -950238181#2.36 -950238181#2.40 -950238181#2.43 -950238181#2.49 -950238181#2.63 -950238181#2.65 -950238181#2.67 -950238181#2.70 950238182#1 950238182#1.37 950238182#1.47 950238182#1.55 950780323 950780323.8 950780323.15 950780323.22 950780323.29 -950238184#2 -950238184#2.9 -950238184#2.19 -950238184#2.27 -950238184#1 -950238180#3 -950238180#3.35 -950238180#3.57 -950238180#3.61 -950238180#3.64 -950238180#2 950238184#4 -45344271#13 -45344271#13.24 -45344271#12 950806850#0 950806850#1 -45344277#8 -45344277#7 -45344277#6 -950806859 -950806859.27 -950806859.38 -950235722#0 -950235722#0.6 -950235722#0.12 -950806855#3 45344277#2 950806857 -950235725#2 -950235725#1 -950235726#0 -950235727#6 -950235727#5 -950235727#4 -950806856 -950806856.40 -950806856.46 -950806856.53 -950806856.64 950235725#4 950806852#2 950806852#2.26 950806852#2.32 950806852#2.37 950806852#2.47 950806852#2.57 -950235727#2 -950235727#2.16 -950806853 950235725#7 897252880#4 897252880#5 897252880#6 897252880#6.90 -45344271#10 950641816#11 950641815#0 950641815#0.27 -950641814 -950238188#3 -950241847#7 -950241847#7.19 -950241847#6 -950241847#5 -950241847#5.4 -950241847#5.12 -950241847#5.18 -950241847#5.23 -950241847#4 -950238186#0 950238187 -45344282#2 -45344282#2.18 -45344282#2.53 -45344282#1 -45344282#0 -45344272#0 -45344273#40 -950235700#3 -950235700#2 950235697#4 950235697#4.10 950235697#4.13 950235697#4.16 950235697#4.19 950235697#4.22 45344272#2 45344272#2.46 45344272#3 45344272#3.108 45344272#3.157 45344272#3.171 45344272#4 45344272#5 45344272#6 950389245 950389245.38 950389245.44 950389245.50 950389245.59 -950389249#1 -950389249#1.5 -950389249#1.8 -950389249#1.11 -950389249#1.14 -950389249#1.33 950389248 950389248.21 950389248.25 950389248.29 950389248.34 950389248.56 950389248.59 950389248.62 950389248.66 -950389249#3 -950389249#3.3 -950389249#3.22 -950389249#3.25 950389246 950389246.10 950389246.16 950389246.23 -950389247#1 -950389247#1.13 -951441775 -951441775.15 -951441775.28 -951441775.39 -951441775.47 -951441775.60 951381432#1 951381432#1.2 951381432#1.5 951381432#1.8 -951370961#1 -951370961#0 -897252852#5 -897252852#3 -897252852#1 -897252852#1.36 -897252852#0 45344272#9 45344272#9.28 45344272#10 45344272#10.38 45344272#11 45344272#11.35 45344272#12 45344272#13 45344272#13.4 45344272#13.35 45344298 896892974 971495602#11 971495602#12 971495602#12.26 971495602#12.77 951442813 951442812#0 -896786335#50 -896786335#49 -896786247#9 -896786247#9.8 -896786247#9.17 -896786247#9.75 -896786247#9.157 -896786247#8 -908869236 -908869236.10 -908869236.25 -908869236.28 -908869236.31 -908869236.34 -908869236.36 -908869236.38 -908869236.41 -908869236.82 -908869236.85 -908869236.89 -908869236.92 -908869236.95 -908869236.97 -908869236.100 -896786335#43 -896786335#42 -896786335#42.22 -896786335#41 -896786335#40 -896786335#39 -896786335#39.27 -908869251 -908869251.5 -908869251.7 -908869251.10 -908869251.12 -908869251.30 -908869251.35 -908869251.40 -908869251.44 -908869251.48 -908869251.66 -908869251.70 -908869251.73 -908869251.76 -908869251.78 896786248#1 896786248#1.30 896786248#1.43 -896786335#34 -908869252#3 -908869252#3.7 -908869252#3.13 -908869252#3.35 -908869252#3.57 -908869252#3.88 -908869252#3.90 -908869252#3.94 -908869241#1 -908869241#1.27 -908869240#0 -908869240#0.1 -908869240#0.4 -908869240#0.7 -908869252#0 -908869252#0.17 -896786335#30 -896893028#5 -896893028#4 -896893028#4.22 -896893028#3 -896893028#3.26 -896893028#1 -896893028#1.14 896893014#0 896893014#0.49 896893015#1 896893015#1.26 896893015#2 896893015#3 896893018#1 896893018#1.2 896893017#1 -896786335#28 -896786335#27 -896786335#27.19 951358823 951358823.10 951358823.15 951358823.20 951358823.26 951354763#3 951354763#4 951354763#5 -951995492#0 -951995491#0 -896786266#12 -896786266#11 -896786266#11.7 909024253#0 909024253#1 909024253#1.45 -896786293#7 -896786293#6 909024251 909024251.27 909024250#4 909024250#5 909024250#6 909024239#0 909024239#1 909024239#1.17 909024239#2 909024239#2.40 -951983585 877396860#3 -896786328#3 -896786328#3.70 904371467#0 904371464 896786325#1 896786325#2 -896786324#1 -896786324#0 -896786324#0.19 -896786324#0.132 -896786324#0.177 951951639#0 951951639#1 951946802 951946795#2 -951946801 951951639#6 951951639#7 951951639#8 951951639#9 951951639#10 951946797 951946795#9 951946795#10 951946795#11 951946795#11.34 951946795#11.40 951946795#11.45 896786337#10 896786337#10.21 -951887700#20 -951887700#19 -671756019#4 -671756019#3 951961253 951961253.63 951961253.68 951961253.73 951961233#1 -951878265#2 -951878263#0 -951878263#0.69 -951878263#0.76 951961251#0 951961247#0 951961247#1 951961247#1.3 951961249#0 951961249#1 951961249#1.17 951961249#1.19 951961249#1.21 951961249#1.24 -951961255 -951961255.19 -951961255.22 -951961255.25 -951961255.27 951961248#1 -876509484#6 -876509484#6.3 -876509484#6.8 -876509484#6.12 -876509484#6.15 951878264#0 951878264#0.74 951878265#0 -951878266#5 -951878266#5.22 -951878266#5.29 -951878266#5.37 -951878266#4 -951878266#4.37 -951878266#2 -951878266#1 -951878266#1.39 -951878266#1.47"/>
</vehicle>
<vehicle id = "veh8" type= "veh_passenger" depart="7210" >
<route edges =" 951370989 951370989.40 951370989.47 951370989.53 951370989.56 951370989.62 951370989.64 951370989.67 -902433320#1 -902433320#0 902433321#2 45342799#21 45342809#0 951368600#0 951368600#1 -45342797#3 -45342797#2 -45342797#1 -45342797#0 -45342834#1 -45342834#0 44740902#8 -45342798#6 45342813#0 45342817#0 45342817#1 -45342803#7 -45342803#6 45342814#4 45342814#5 45342809#8 44740885#10 44740885#11 44740885#11.48 44740885#11.52 45342829 45342827#1 -45342826#0 45342825#1 45342825#2 45342828#0 45342828#1 45342828#1.100 -45344273#6 -45344273#6.40 -45344273#6.59 -951384598#3 -951384598#2 -951404491 -951404491.16 -951404491.28 -951404491.40 -951404491.51 -951384599#0 -700249213#7 -700249213#7.47 -700249213#7.56 -700249213#7.59 -700249213#7.61 -700249213#7.65 -700249213#6 -897252869#3 -897252869#2 897252861 897252860#1 -45344315#1 -45344315#1.25 -45344315#0 -45344315#0.31 700249213#11 45342808#10 45342808#11 45342808#11.24 951417471 951417471.18 951417471.38 951370965#1 951370965#1.28 951370965#1.49 -45344314#0 897252864#3 -897252871 -897252870 -45344310#2 -45344310#1 -45344310#0 -45344310#0.10 -45344310#0.18 -45344310#0.30 -45344310#0.41 -45344310#0.52 971495602#8 971495602#8.24 971495602#8.86 -313316104#6 -45378650#5 -45378650#5.11 -45378650#4 -45378650#3 -45378650#3.29 -45378650#2 -45378650#2.42 -45378650#2.62 -45378650#1 -908846596#1 -908846596#0 -908846596#0.31 908560901#7 908560901#8 908560901#8.23 908560901#8.56 -313316104#0 -313316082 -45378649#12 896786296#0 896786296#1 896786296#1.36 896786296#2 896786296#2.35 -896786254#1 -896786254#1.26 951355294#1 951355294#1.19 951355294#1.22 951355294#1.23 951355294#1.24 951355294#1.25 951355294#1.27 951355294#1.28 951355294#1.31 951355294#1.41 951355294#1.42 951355294#1.43 951355294#1.44 951355294#1.45 951355294#1.47 896786258#4 -896786261 896786263#1 951354764#1 -896786262#0 -896786262#0.33 -896786262#0.115 -896786260#1 -896786260#1.5 -896786260#0 -896786260#0.52 896786257#4 909024248 909024248.50 -45378665#3 -45378665#3.29 -45378665#3.50 896786293#3 896786293#3.29 -909024240 -909024240.17 -909024240.35 -909024241#0 -909024241#0.4 896786257#6 896786257#6.8 896786257#6.44 896786257#6.53 896786293#5 896786293#5.12 896786293#6 896786293#7 -909024253#1 -909024253#1.16 951995490#0 951995490#1 951995490#1.10 951995490#1.14 951995490#1.17 951995490#1.20 -909024250#1 909024249 909024249.20 909024249.72 -896893011#1 -896893011#0 -896893011#0.52 -896893013#2 -896893013#1 -896893013#1.7 -896893009 -896893009.79 -896893012#4 -896893012#3 -896893012#2 -896893012#2.9 896786300#3 896786300#3.17 -896786335#14 -896786335#14.27 -896786335#13 -951983587#9 -896786303#1 -896786303#1.61 951983586#0 951983586#1 -896786304#8 -896786304#8.29 951983589#1 951983589#1.89 951983589#1.104 951983589#1.119 -951983587#2 877398739#2 877398739#2.30 -951983590 -896786311#9 -896786311#8 -896786311#7 -896786311#6 -896786311#6.24 -896786311#4 -951930671#3 -951930671#3.23 951930672#0 951930672#1 -951930673#3 -951930673#3.17 -951930676 -951930676.40 -951930676.43 -951930676.45 -951930676.48 -951930671#1 -951930671#0 -951930671#0.25 -951930671#0.32 -951930671#0.42 951930675 -951930673#0 951976009#0 951976009#1 -896786335#7 -896786335#6 896786319#0 896786319#0.19 896786319#1 896786319#1.7 896786319#2 -896786315#4 -951976005 896786317#1 896786317#1.17 896786319#5 896786319#5.19 896786316#0 896786316#1 896786316#1.13 896786316#2 896786316#3 -896786315#0 -877396172#1 -877396172#1.57 -877396172#0 -877396172#0.15 -896786313#2 -896786313#2.55 -951930663#1 951930662#2 951976000#3 -951976001#1 -951976002 -951976000#1 -951976000#0 -896786335#0 -951946803#2 -951946816#13 -951946816#13.3 -951946816#13.8 -951946816#12 951946833#1 951951640 951946817#2 951946817#3 -951946818#3 -951946818#3.18 -951946818#3.21 951946821#0 951946821#0.45 951946821#0.47 951946821#0.51 951946823 -951946816#9 -951946816#7 -951946820#1 -951946820#0 -951946819#0 -951946816#5 -951946816#5.8 -951946816#5.11 -951946816#5.14 -951946816#5.18 -951946816#4 -951946816#2 -951946816#1 -951946816#0 -951946815#4 951946828 -951946787#4 -951946787#3 -951946787#2 -951946814#2 -951946814#0 -951946812#1 -951946813 951946810#1 951946810#2 -896786337#14 -896786337#14.40 -896786337#14.111 -952365020 -952365021 -951878231#2 -951878231#1 -951878231#1.26 -951868611#0 -951951643#4 -951951643#3 -951951643#2 -951951643#1 951951648#0 951951649 -951878263#6 -951878263#5 -951878269#15 -951891772#2 -951891774 951891771#2 951930613 -951878269#9 -951878269#7 -951878269#6 -951878269#5 -951878269#4 951878272#0 951878272#1 951878272#2 951878272#4 -951887658 -951887655#0 -904196454#0 -700825961#7 -700825961#7.10 -700825961#7.37 -951891762 700825962#6 700825962#7 700825962#7.15 700825962#7.28 700825962#8 700825962#8.3 951887700#0 951887700#1 -951887701#0 951887666#1 951887666#2 951887664#1 -904196454#4 951887661#0 951917022 -951887660#3 -951887662 951887661#2 951887663#3 -951887660#0 877401978#1 951878266#0"/>
</vehicle>
<vehicle id = "veh9" type= "veh_passenger" depart="10815" >
<route edges =" 951370989 951370989.40 951370989.47 951370989.53 951370989.56 951370989.62 951370989.64 951370989.67 -902433320#1 -902433320#0 902433321#2 -45342799#20 -45342797#4 -951368600#1 -951368603#1 951368601#0 951368601#1 -45342797#2 -45342797#1 -45342797#0 -45342834#1 -45342834#0 44740902#8 44740902#9 44740902#9.47 -951370984#2 45342813#2 -45342814#1 44740902#11 44740902#12 671399046#2 671399046#2.23 -671399054#1 671399053 -44740885#4 -44740885#3 -44740901#6 -44740891#4 974189220#1 -44740896#2 -951417474 -44740957#7 -44740957#6 -44740957#5 -671399051#1 -671399051#0 -44740942#1 -44740901#0 -313316089 -951438761 44740929#6 44740967#1 -951438763#1 -951438763#1.52 -951438763#0 -951438763#0.72 -951438763#0.77 -951438763#0.80 -951438763#0.82 -951438763#0.85 44740929#3 672215965#0 672215965#0.11 672215965#1 44740922#1 44740922#2 44740922#2.25 44740953#0 -44740923#3 44740927#17 44740922#5 44740922#5.74 44740922#6 -44740989#1 -44740989#0 44740925#1 -44740926#4 -951358803 44740955#1 44740955#2 44740924#1 -44740927#15 -44740927#14 -44740927#13 -44740928#2 -951358805#1 -951358805#0 951358806#1 -44740926#7 -44740928#0 -44740928#0.75 -44740930#6 -44739163#14 102277232#3 102277232#4 102277232#4.80 102277232#4.133 102277232#4.154 102277232#5 102277232#6 672803221 672803221.14 672803221.21 672803221.29 672803221.35 672803221.40 896892969#12 896892969#13 896892969#13.22 896892969#13.80 896892969#13.126 44740927#0 44740927#0.8 44740927#0.22 -951358794#2 -951358794#1 -951358794#0 44740930#1 44740930#2 -951346853 44740939#1 -44740920#0 44740930#4 44739156#14 44739156#15 44739156#16 44740927#5 44740927#6 -951366798 -951366798.30 -951366798.39 -951366798.48 -951366798.59 -951366798.70 -951366798.78 -951366798.83 -951366798.89 951358797#3 -951358800#0 -44740918#1 -44740918#0 44740920#6 -951358792 -951358792.26 -951358792.42 -951358792.53 -951358792.66 896892969#18 45340579#18 45340579#18.164 45340579#19 45340579#19.12 45340579#19.84 909019791#0 909019791#1 909019791#2 44740916#6 -909019789#0 -909019789#0.59 -909019789#0.61 -909019789#0.64 -909019789#0.68 44740933#1 44740933#2 44740910#5 44740910#5.46 -44740932#5 -44740932#4 -44740932#3 -44740932#2 -44740934#4 -44740934#3 -44740934#3.33 -909019780#1 -909019780#0 -668599376#0 -668599376#0.11 668599377#1 668599377#1.37 44740916#9 44740916#9.64 44740916#11 -971495601#6 -971495601#5 -971495601#3 -971495601#1 -971495601#0 -313316086 -44739144#26 -44739144#24 -44739144#22 -44739144#21 -44739144#20 -44739144#19 -44739144#19.14 -44739144#18 671752228#0 -671960103#1 -951346850 -44739144#15 -44739144#13 -877396860#22 -952002225#1 -909024265#2 -909024265#2.29 909024264#0 -909024263 -909024263.30 -909024265#0 896786289#1 896786289#1.39 896786289#2 896786289#3 -909024270 -909024270.74 -909024270.101 -909024277#0 -909024279#3 -909024279#2 -909024279#2.12 -909024276#2 951346848#0 951346848#0.15 951346848#0.24 951346848#0.33 951346848#0.42 -909024260 -909024260.37 -909024260.93 -909024260.137 -896786280#3 909024257 909024257.36 909024257.92 -896786275#3 896786271#1 896786271#2 896786271#2.11 896786295#10 -896786269#9 -896786269#7 -896786275#0 -896786275#0.11 896786268#2 896786268#2.6 896786268#3 896786295#13 -896786294#5 -896786294#5.6 -896786294#5.10 -896786294#5.13 -896786294#5.16 -896786294#5.19 -896786294#5.22 -896786294#4 -896786294#3 -896786294#3.26 951992347 896786277#3 -909024256#0 -909024256#0.28 896786279#5 896786278#1 896786267#2 877398366#14 877398366#14.18 -904286380#3 -904286380#3.41 -904286380#2 -877396860#12 -877396860#11 -671191680#13 -671191680#11 904371466 904371466.63 904371465#2 904371467#2 904371467#2.64 904371467#2.129 951975997 -904286373#0 -904286375#1 -904286375#0 904286385#12 -951992356 -951992356.18 -951992356.27 -951992356.36 904371488#1 -904371468 -904371468.19 -904371468.25 -904371468.28 -904371468.32 -904371468.43 904286385#15 904286385#15.27 -904286386#4 -904286386#4.23 -904371470#0 904371473#1 904371473#1.24 904371473#3 -904286388#0 904286386#7 671191683#3 -904286387#3 -904286387#3.46 -904286387#3.53 -904286387#2 -904286387#2.12 951973453#0 -951973454 951973452#2 -951973451#3 -951992361 -904371488#6 -904371488#5 -904371488#4 904371486#0 904371486#1 904371487#0 -904371489#2 951973468#0 -904286385#5 -904286385#5.9 -904371490#4 951973470#0 -951973471#4 -904371456#2 -904371456#2.22 -904371456#1 -904371456#0 -904371456#0.17 -671191680#0 -671191680#0.38 -671191680#0.44 -671191680#0.48 -671191680#0.53 -671191680#0.58 -671191680#0.63 -671191680#0.76 -896786327#0 877395784#22 877395784#22.56 877395784#23 -952002224#7 -952002224#7.17 -952002224#7.71 -951973426#2 951951638#9 951973434#1 951951639#3 951951639#4 -951973432#1 -951951638#7 951946800#0 951951639#7 -951973430#1 -951951638#4 -951951638#3 -951951638#2 -951946794#1 951951639#14 951951639#15 896786337#6 896786337#7 896786337#8 896786337#8.8 896786337#10 896786337#10.21 -951887700#20 -951887695#5 -951887682#5 -951887682#4 951887687#0 951887687#0.26 951887687#1 951887687#1.5 951887687#1.11 -951961233#4 951961244 951961244.37 951961244.40 951961244.43 951961244.47 -951961242#1 -951961242#0 -951961240#1 -951961245 951891772#0 -951891773 -951891771#0"/>
</vehicle>
<vehicle id = "veh10" type= "veh_passenger" depart="10815" >
<route edges =" 45342801#5 45342801#5.32 902433317#3 902433317#4 951368598#0 -951381446#0 951368595#1 951368595#1.17 951368595#1.34 902433317#8 902433317#8.29 951368593#1 972507120#2 972507120#3 -951421966 -951369743#0 -951369743#0.6 951369744#2 951369744#2.22 951369744#2.31 951369744#3 951369744#3.5 -951369745#1 -951369745#1.3 -951369745#1.8 -951381440 -951369738 -951369738.5 -951369738.18 -951369738.24 -951369738.31 -951369741#2 -951369741#2.8 -951369741#2.11 -951369741#2.13 -951369741#2.16 -951369741#2.19 -951369741#2.22 -951369741#1 -951369741#1.20 -951369741#1.25 -951369741#1.30 -45344273#26 897252876#0 897252876#0.16 897252876#0.57 897252876#1 897252876#1.54 897252876#3 897252876#4 45344320#2 -45344329#7 45344327#0 45344327#1 897172091#12 -950400189 -950235691#2 -950235691#2.50 -950235691#1 -950235691#0 -950235691#0.4 -950235690#0 -950235690#0.14 -700254525#9 -700254525#8 950235689#0 950400192#1 -699875131#3 -699875131#2 -45344335#1 -950235689#2 -950400194#1 -950400194#0 950400195#2 950400195#2.6 -45344297#0 -45344297#0.11 -897252883#1 -897252883#0 -897252883#0.7 -897172091#1 -897172091#0 -45344294#6 -45344294#6.9 -45344294#6.25 -45344294#5 -45344294#5.7 -951370959 -951370959.20 -951370959.22 -951370959.23 -951370959.27 -951370959.28 -951370959.29 -951370959.30 -951370959.31 -897252850#4 -951370961#1 -951370961#0 897252852#6 897252852#6.19 897252858#3 -45344286#12 -45344286#11 -45344286#9 -45344286#9.15 -45344286#9.41 -45344286#9.67 -45344286#8 -45344286#7 -702632122#4 -702632122#4.41 -702632122#4.57 -702632122#4.62 -702632122#4.67 -702632122#4.71 -702632122#4.73 -702632122#4.77 -702632123#3 -702632123#2 -702632123#1 -702632123#1.4 -951404495 -951384610#0 45344272#12 45344272#13 45344272#13.4 45344272#13.35 45344298 896892974 971495602#11 971495602#12 971495602#12.26 971495602#12.77 951442813 951442812#0 -896786335#50 -896786335#49 -896786247#9 -896786247#9.8 -896786247#9.17 -896786247#9.75 -896786247#9.157 -896786247#8 -896786247#7 -896786247#7.2 -908869249#2 -908869249#2.8 -908869249#2.14 -908869249#2.28 -908869246 -908869247 -908869248#2 -908869248#1 -908869248#1.4 -908869248#1.6 -908869248#1.9 -908869248#1.11 -908869248#1.19 -951358827#2 -951358826 -951358826.10 -951358826.13 -951358826.16 -951358826.19 -951358826.36 -951358826.40 -951358826.44 -951358826.49 -896786335#42 -896786335#42.22 896892977#0 896892977#0.14 896892977#1 896892977#1.45 896892977#1.56 -908869250#4 -908869250#4.38 -908869250#3 -908869238 -908869238.92 -896786335#39 -896786335#39.27 -896786335#37 -896786335#36 -951349917#1 -951349917#1.14 -951349917#1.29 -951349917#1.41 -951349917#1.59 -951349918 876614662#9 876614662#9.52 -896786335#32 -896786335#32.17 951355291 951355291.25 951355291.31 951355291.36 951355291.46 951355291.50 951355291.55 951355291.60 951355291.65 -908869252#1 -908869252#0 -908869252#0.17 -896786335#30 45378649#0 45378649#0.36 45378649#1 951354763#0 951354763#1 951354763#2 951354763#3 951995494#0 -951995491#2 -951995491#1 -951995491#0 896786266#13 896786266#13.14 -896893013#7 -896893013#7.29 -896893013#7.87 951995483 -896893004#2 951995485 -896786307#9 -896786307#9.12 -896786307#9.63 -896786307#9.67 -896786307#9.69 -896892999 -896892999.50 -896892998#2 -896892998#2.10 -896892998#1 -896892998#0 -896892998#0.14 -896892994#0 896786310#2 896786310#2.33 896786310#2.46 896786309#6 896786309#6.19 896786309#6.40 896786309#6.67 896786309#7 896786309#7.10 896786309#7.21 896786309#7.71 896786309#8 896786309#8.22 -951988596#1 951988597#0 951988597#1 896786309#13 -951988598#1 -951988598#0 -951988598#0.25 -951988598#0.29 -951988598#0.33 -951988598#0.37 -951988595#0 -951988595#0.6 -951988600#1 -951988600#0 -951988600#0.43 -951988600#0.49 -951988600#0.52 -951988600#0.57 -951988602#0 -951988602#0.11 -951988602#0.36 951935274#5 951935274#5.4 951935274#5.13 951935274#5.22 951935274#5.58 951935274#5.68 951935274#5.76 951935274#6 951988604#0 951988604#1 951988606#1 -951988605#0 951988604#4 -896786309#20 -896786309#18 -896786309#17 -951930620 951930617#6 951930617#7 951983611#0 951983609#1 951983609#1.23 951983609#1.32 951983609#1.38 -951983592#6 -951983592#6.23 -951983592#6.30 -951983592#6.36 -951983592#5 -951983592#4 -951983592#4.18 -951983592#4.26 -951983592#4.38 -951988579 951988578#1 -951988576#1 -951988576#0 -896786309#2 -896786309#2.4 -896786309#2.65 -896786309#1 -896786309#0 896786304#2 896786300#0 896786300#0.23 896893013#0 896893013#0.10 896893013#0.59 -896893009 -896893009.79 -896893012#4 -896893012#3 -896893012#2 -896893012#2.9 -896893012#1 -896893012#0 -896893012#0.11 896786303#5 896786303#5.27 896786303#5.100 896786303#5.124 896786303#6 896786303#6.29 896786302#1 896786304#6 896786304#7 896786304#7.11 896786304#8 896786304#8.15 -877398739#3 -951983590 951983591 -951983587#0 -951983587#0.39 -951983587#0.45 -951983587#0.51 -951983587#0.56 951976010#0 951976010#1 -896786322 -896786322.14 -896786322.21 -896786323#1 896786325#4 896786325#4.12 -896786335#4 -896786335#4.18 -896786335#3 -896786335#3.10 -896786335#2 -896786335#1 -896786335#1.14 -896786335#0 -877395784#15 951946833#0 951946816#12 951946816#13 951946816#13.22 951946816#13.26 951946816#14 951946795#0 951946795#0.4 951946795#0.7 951946795#0.9 -951946803#0 951951639#1 951946802 951946795#2 951946795#3 951946795#4 -951946799 951951639#9 951951639#10 951951639#11 951946796#0 951946796#1 951946795#10 951946795#11 951946795#11.34 951946795#11.40 951946795#11.45 -951887683 -951887684 -951887682#6 951887695#5 -951887700#19 -671756019#4 -951961235 951961234#1 -951878265#2 951878263#1 951878263#1.39 951878263#1.46 951878263#1.53 951878263#1.72 951878263#1.75 951878263#2 951878263#2.2 -951878266#4 -951878266#4.37 -951878266#2 -951878266#1 -951878266#1.39 -951878266#1.47"/>
</vehicle>
<vehicle id = "veh11" type= "veh_passenger" depart="10815" >
<route edges =" -45342801#4 45342799#23 45342799#25 45342799#25.7 45342799#25.22 45342799#26 45342799#27 45342799#27.15 45342799#27.20 45342799#27.25 45342799#27.36 972507120#0 -903341083#3 -903341083#2 -903341083#1 -951368605#2 -951368605#1 -951368605#0 -45342811#0 -45342801#0 -45342798#1 -45342798#0 -45344273#21 -45344273#21.28 -951441770 45342810#5 -973399407#2 -45342830#1 44740885#16 44740885#17 902433295#0 902433295#0.35 -951370982#1 -951370980 -951370980.12 -951370980.14 -951370980.16 -951370980.17 -951370980.19 -951370980.24 -45344293#2 -45344293#2.10 -45344293#2.11 -45344293#2.12 -45344293#2.14 -45344293#2.15 -45344293#2.16 -45344293#2.18 -45344293#1 -45344293#1.78 -45344293#0 -45344273#13 -45344273#12 -45344273#11 -45344273#10 -45344273#10.42 -45344273#9 -45344273#8 -45344273#8.10 -45344273#7 -45344273#7.22 -45344273#6 -45344273#6.40 -45344273#6.59 -45344273#5 -45344273#5.6 -45344273#5.15 -45344273#4 -45344273#4.8 -45344273#4.37 -45344273#3 -45344273#3.6 -45344273#3.14 -45344273#3.31 -45344273#3.48 -45344273#2 -45344273#2.6 -45344273#2.24 -45344273#1 -45344273#1.7 -45344273#0 -897252881 -45378637#10 45378639#7 -951404483#2 -951404484#9 -951404484#9.20 -951404484#8 -951404484#6 951404482 45378639#9 45378639#10 45378639#11 -951404475 -951404475.33 -951404475.43 -951404476 -951404476.16 -951404476.32 -951404476.50 -951404476.59 -951404476.68 -951404476.84 -951404476.93 -951404476.101 -951404476.106 -951404476.113 971495602#7 971495602#7.32 971495602#7.56 971495602#8 971495602#8.24 971495602#8.86 45340579#6 -908560887#8 -908560887#8.9 -908560887#8.22 -908560887#8.29 -908560887#8.34 -908560887#8.39 -908560887#8.43 -908560887#8.49 -908560887#8.57 -908560887#8.62 -908560887#8.67 -908560887#8.71 -908560887#7 -908560887#7.10 -908560887#7.18 -908560887#7.26 -908560887#7.31 -908560887#7.34 -908560887#7.37 -951435494 -951435494.8 -951435494.19 -951435494.25 -951435494.33 -951435494.43 -951435494.50 -951435494.55 -951435494.60 -951435494.65 -951435500 -951435500.28 -951435500.32 -951435500.35 -951435500.37 -951435500.40 -951435500.48 -951435500.51 -951435500.54 -951435500.57 -951435500.60 -951435500.63 -951435500.67 -951435500.70 -951435500.74 -951435500.78 -951435500.92 -951435500.96 -951435500.100 -951435500.103 -951435500.108 -951435500.117 -951435500.121 -951435500.125 -951435500.137 -951435500.141 -951435500.145 -951435500.148 -313316104#3 -313316104#2 -313316104#2.13 -313316104#2.35 -313316104#2.44 -313316104#1 -313316104#0 -313316082 -45378649#12 -45378649#11 -45378649#11.22 -45378649#10 -45378649#10.20 -45378649#9 -45378649#9.7 -45378649#7 -45378649#7.4 -45378649#5 -45378649#5.24 -45378649#5.57 -45378649#5.68 -45378649#3 -45378649#3.8 -896786265#8 -896786265#7 -896786265#7.11 -896786265#6 -896786265#6.26 896786253 896786253.47 896786253.111 896786263#4 -951358821#2 -951358821#2.84 -951358821#2.87 -951358821#2.89 -951358821#2.91 -951358821#2.98 -951358821#1 -951358821#0 -951358821#0.3 -951358821#0.6 -951358821#0.9 -951358822#0 -951358822#0.4 -951358822#0.8 -951358822#0.13 -896786265#2 -896786265#0 896786266#11 896786266#11.13 909024250#0 909024250#1 909024250#2 909024250#4 909024250#5 909024250#6 909024239#0 909024239#1 909024239#1.17 -909024237#1 -909024237#1.34 -909024237#1.71 -909024237#1.74 -909024237#1.78 -909024237#1.82 877398366#1 877398366#1.15 877398366#2 877398366#2.36 -951983585 -951975994 -896786324#1 -896786324#0 -896786324#0.19 -896786324#0.132 -896786324#0.177 -877395784#19 -877395784#17 -877395784#17.8 -877395784#17.24 896786335#0 951976000#0 -951975999 -877395784#14 -877395784#14.13 -877395784#13 -877395784#13.47 -951946824 951946816#9 -951946823 -951946821#0 -951946821#0.2 -951946821#0.6 -951946821#0.9 -951946818#2 -951946818#0 951946833#9 951946833#9.22 951946833#11 951946833#11.92 951946833#11.95 951946833#11.98 951946833#11.101 -951946806#0 -952365020 -952365021 -951878231#2 -951878231#1 -951878231#1.26 -951878231#0 951951645 -951951643#3 -951951646 -951951642#2 -951951642#1 -951951642#0 -951878263#5 -951878269#15 -951878269#14 -951878269#13 -951878269#12 951878270#0 951878270#0.33 951878270#0.36 951878270#0.39 951878270#0.42 951878270#2 951878270#3 951878270#4 -951891764#2 -951891764#1 -951891764#0 -951887660#0 877401978#1 951878266#0"/>
</vehicle>
<vehicle id = "veh12" type= "veh_passenger" depart="14420" >
<route edges =" 951370989 951370989.40 951370989.47 951370989.53 951370989.56 951370989.62 951370989.64 951370989.67 -902433320#1 -902433320#0 902433321#2 45342799#21 45342799#22 -45342801#3 -45342801#2 -45342801#1 -45342801#0 45342798#2 45342809#4 45342809#5 45342809#6 -951370985#1 951441769 -45342836#0 45342818#2 45342818#3 45342814#5 45342809#8 -44740885#9 -44740885#9.34 -44740885#8 -44740885#7 44740902#12 44740902#13 44740902#14 44740902#14.81 44740902#14.94 -44740942#2 -44740942#2.11 -44740942#1 44740901#1 -951417475#1 -974189220#3 -44740895#3 -44740895#2 -44740895#2.69 44740972#0 44740972#1 -44740969#4 -44740969#2 -951439006 -951439007 -951439008 955813295#1 955813295#1.169 955410233 -44740922#8 -44740922#7 -44740989#1 44740923#1 44740926#1 44740926#2 44740926#3 44740926#4 44740925#2 44740925#3 44740927#15 44740927#16 44740923#3 -951438764 -951438764.47 -951438764.119 45378639#0 45378639#0.48 45378639#1 45378639#1.38 45378639#2 45378639#2.25 45378639#2.39 951439125#0 951439125#0.15 951439125#0.23 951439125#0.33 -951439124 -951439124.39 -951439124.43 -951439124.48 -951439124.52 45378639#4 -699869913 -699869913.14 -699869913.19 -699869913.23 -699869913.28 -45378640#3 -45378683#4 -45378683#4.30 -45378683#4.33 -45378683#4.36 -45378683#4.38 -45378683#4.41 -45378683#4.68 -45378683#4.75 -45378683#4.81 -45378683#4.88 -45378658#3 -45378640#1 -45378640#0 45378655#1 45378655#2 45378655#3 45378655#4 -45378656#1 -45378656#0 -45378656#0.43 -45378656#0.46 -45378656#0.48 -45378656#0.49 -45378656#0.51 -45378656#0.58 -45378656#0.60 -45378656#0.62 -45378656#0.64 45378654#1 45378657#4 -44739163#20 -44739163#19 -44740918#2 -44740918#1 44740931#0 44740931#1 -313316091#1 -313316091#1.32 -313316091#0 -313316091#0.27 -313316091#0.72 -313316091#0.80 -971495601#9 -971495601#9.28 -971495601#8 -971495601#7 -971495601#6 -971495601#5 -971495601#3 -971495601#1 -971495601#0 -313316086 -44739144#26 -44739144#24 -44739144#22 -44739144#21 -951346849 909778546#1 -909778547#0 -44739144#19 -44739144#19.14 702673217#0 702673217#1 702673217#2 896786289#3 -896786294#8 -909024279#5 -909024279#5.21 -909024280#1 -909024280#1.18 -909024280#0 896786295#12 896786295#12.9 896786295#13 -896786294#5 -896786294#5.6 -896786294#5.10 -896786294#5.13 -896786294#5.16 -896786294#5.19 -896786294#5.22 -896786294#4 -896786294#3 -896786294#3.26 951992347 -896786277#2 -896786277#0 877398366#16 904286386#0 904286386#1 904286386#1.27 904286386#2 904286386#3 904286386#3.9 904286386#3.31 904286386#4 904286386#4.19 904286386#6 904286386#7 951973455 951973456#1 -951973451#0 -671191683#0 -671191683#0.3 -671191683#0.13 -671191683#0.21 904371486#0 951992348 904286385#9 904286385#10 904286375#0 -904286372#0 904286373#4 -904371487#1 -904371487#1.16 -904371489#2 -904371489#1 -904371489#1.14 -904371489#1.36 -904371489#1.40 -904371489#1.44 671191682#0 671191682#1 671191682#2 904371493#3 904371493#4 904286385#2 904286385#3 -951973457 904371492#5 -904371456#3 -904371456#2 -904371456#2.22 -951973471#1 -951973471#0 -671191680#1 -671191680#1.13 -671191680#0 -671191680#0.38 -671191680#0.44 -671191680#0.48 -671191680#0.53 -671191680#0.58 -671191680#0.63 -671191680#0.76 -896786327#0 -877395784#21 -877395784#21.14 -951951638#10 -951951638#10.18 951973434#1 951951639#3 951973426#1 -951951638#8 -951951638#7 -951951638#5 -951951638#4 -951951638#3 952000398 951951639#13 -951946794#0 951946792#1 896786337#8 896786337#8.8 896786337#10 896786337#10.21 -951887700#20 -951887700#19 -951887686#1 -951887688#2 -951887688#1 -951887688#0 951887687#1 951887687#1.5 951887687#1.11 -951887700#15 -951887700#14 -951887679#2 -951887679#1 -951887679#1.32 -951887679#1.35 -951887679#1.38 -951887679#1.41 -951887679#0 951887678#1 951887678#2 951887700#10 951887700#11 951961240#0 951961240#0.54 951961240#0.57 951961240#0.59 951961240#0.62 -951961245 951891772#0 951891772#1 -951891774 -951891771#1 -951891771#0"/>
</vehicle>
<vehicle id = "veh13" type= "veh_passenger" depart="14420" >
[...]
</vehicle>
<vehicle id = "veh18" type= "veh_passenger" depart="21630" >
<route edges =" 951370989 951370989.40 951370989.47 951370989.53 951370989.56 951370989.62 951370989.64 951370989.67 -902433320#1 -902433320#0 902433321#2 45342799#21 45342809#0 45342809#1 45342809#2 45342809#3 45342798#3 45342798#4 45342798#5 45342813#0 45342813#1 -951370984#1 -45342816#0 45342817#1 -45342803#7 -45342803#6 -45342803#5 -45342803#4 -45342803#3 -45342803#2 -45342802#2 -45342802#1 -671399056 671399058#2 44740901#4 44740896#0 -951417473 -44740957#6 -44740901#2 -671399049#1 -671399049#0 -671399051#0 -44740942#1 -44740942#0 974189220#5 902433296 44740967#0 44740929#7 44740929#8 -44740960#1 -44740960#0 -44740930#13 -44740930#12 -44740930#11 -44740930#10 -44740930#9 44740925#0 44740925#1 44740926#5 44739167#11 44739167#12 -44740953#3 44740940#0 44740940#1 -44740948#1 -951438765 313316091#11 313316091#12 -671761561 -45378689#4 -45378689#2 -45378689#1 -45378689#0 45378683#1 45378655#2 45378655#3 -45378685#2 -45378685#1 45378654#0 45378654#1 -45378657#3 -45378657#3.57 -45378657#3.61 -45378657#3.65 -45378657#3.69 -45378657#3.73 -45378657#3.78 -45378672 -45378672.64 45378673 -45378657#1 -44740931#2 -44740931#2.59 -44740931#1 -44740919#0 -951358792 -951358792.26 -951358792.42 -951358792.53 -951358792.66 896892969#18 45340579#18 45340579#18.164 44740932#0 909019790#0 909019790#0.39 -909019789#2 -909019789#1 44740916#7 44740916#8 44740916#9 44740916#9.64 44740916#11 -971495601#6 -971495601#5 -45378660#1 -45378660#1.21 -45378660#1.52 -45378660#1.88 -45378660#1.126 -908560900#3 -908560900#2 -908560900#1 -908560901#21 -908560901#21.18 -908560901#21.74 -908560901#20 -908560901#20.10 -908560901#20.61 -908560901#20.115 -908560901#19 -908560901#19.77 -908560901#19.104 -896786299#0 -896786298 -45378665#19 896786296#12 896786296#12.21 896786296#12.68 896786296#13 896786296#13.14 896786296#14 896786296#14.11 896786296#15 896786296#15.3 896786296#16 896786296#17 896786296#17.29 896786296#17.96 896786296#17.102 896786296#18 896786296#18.4 896786296#18.17 -44739144#24 909024272#0 909024272#0.29 909024272#1 909024272#1.30 909024272#1.53 909024271#1 -896786294#10 -896786294#8 -896786294#7 -896786294#7.20 -896786294#6 -896786294#5 -896786294#5.6 -896786294#5.10 -896786294#5.13 -896786294#5.16 -896786294#5.19 -896786294#5.22 -896786294#4 -909024256#1 -909024256#1.22 -909024256#1.80 -896786277#3 -896786277#2 -896786277#0 -896786290#5 -909024293#3 -909024292 -909024292.58 -896786290#3 -896786290#2 -904286383#1 -904286384#1 -904286384#1.25 -904286384#0 -904286385#13 -904286385#13.24 896786290#0 -904286381#6 -904286381#4 -904286372#1 -904286372#0 904286373#4 -904286385#6 951973468#1 -951973469 -904371490#1 -904371490#0 -951973470#1 -951973470#1.3 -951973470#1.6 -951973470#1.10 -951973470#0 -904371492#6 -904371456#3 -904371456#2 -904371456#2.22 -951973471#1 -951973471#0 -671191680#1 -671191680#1.13 -671191680#0 -671191680#0.38 -671191680#0.44 -671191680#0.48 -671191680#0.53 -671191680#0.58 -671191680#0.63 -671191680#0.76 -896786327#0 -877395784#21 -877395784#21.14 -951951638#10 -951951638#10.18 951973434#1 951951639#3 951973426#1 -951951638#8 -951951638#7 -951951638#5 -951973430#0 -952002224#4 -952002224#4.27 951946798#0 951946798#1 951951639#10 951951639#11 951951639#13 -951946794#0 951946792#1 896786337#8 896786337#8.8 896786337#10 896786337#10.21 -951887700#20 -951887700#19 -951887686#1 -951887688#2 -951887688#1 951887689 -951887700#16 -951887700#15 -951887700#14 -951961240#3 -951961240#1 -951961245 951891772#0 -951891773 -951891771#0"/>
</vehicle>
<vehicle id = "veh19" type= "veh_passenger" depart="21630" >
<route edges =" 45342801#5 45342801#5.32 902433317#3 902433317#4 902433317#6 902433317#7 902433317#8 902433317#8.29 902433317#9 951368594#0 951368594#1 -951369743#1 -951369743#1.33 -951369743#1.39 951421966 -951369746#4 -951369746#4.24 -951369746#4.27 -951369746#4.29 951369745#0 -951381440 -951369738 -951369738.5 -951369738.18 -951369738.24 -951369738.31 -951379885 -951379885.7 -951379885.13 -951379885.20 -951379885.27 951379886#2 951379886#2.14 951379886#2.19 951379886#2.22 951379886#2.25 951379886#2.28 -951369741#1 -951369741#1.20 -951369741#1.25 -951369741#1.30 -45344273#26 897252876#0 897252876#0.16 897252876#0.57 897252874 -897252875#2 -897252875#2.29 -897252875#0 -897252875#0.4 -897252875#0.15 -897252875#0.35 897252876#3 897252876#4 45344320#2 45344320#3 -45344331#4 -45344331#3 -45344331#2 -45344331#1 -45344331#0 45344326#3 -897172091#6 -951404496 -951404496.25 -951404496.29 -951404496.31 -951404496.34 -951404496.36 -897252883#0 -897252883#0.7 -897172091#1 -897172091#0 -45344294#6 -45344294#6.9 -45344294#6.25 -45344294#5 -45344294#5.7 -45344294#4 -45344294#4.7 -45344294#4.18 -45344294#3 897252857 897252858#2 897252858#3 -45344286#12 -45344299 -45344299.40 -45344299.79 -45344299.80 -45344299.82 -45344299.84 -45344299.86 -45344299.89 -45344299.97 -45344299.99 -45344299.101 -45344299.106 -896892971#1 897252856 897252856.32 897252856.36 897252856.40 897252856.43 897252856.47 897252856.51 -45344286#9 -45344286#9.15 -45344286#9.41 -45344286#9.67 -45344286#8 -45344286#7 -45344286#6 -45344286#6.52 -45344286#4 -45344286#4.11 -45344286#3 -45344286#3.9 -45344286#3.30 -45344286#3.45 -45344286#2 -45344286#2.12 -45344286#2.42 951440588 951440588.19 951440588.23 951440588.28 951440588.33 951440588.54 951440588.59 951440588.67 951440588.90 951440588.105 951440588.109 951440588.113 951440588.119 951440588.124 951440588.129 951440588.138 951440588.140 951440588.143 951440588.148 951440588.162 951440588.168 951440588.174 951440588.183 951440588.193 951440588.221 951440588.225 951440588.229 951440588.234 951440588.238 951440588.244 951440588.248 951440588.251 951440588.254 951440588.258 702632122#3 -702632123#3 -702632123#2 -702632123#1 -702632123#1.4 -702632123#0 45344272#13 45344272#13.4 45344272#13.35 45344298 896892974 971495602#11 971495602#12 971495602#12.26 971495602#12.77 951442813 951442812#0 -896786335#50 -896892981#13 -896892981#13.5 -896892981#13.13 -896892981#12 -896892981#10 -896892981#10.8 -896892981#9 -896892981#8 -896892981#8.18 -896892981#8.50 -896892981#8.78 -951358829#1 -951358829#1.27 -951358829#1.80 950260764#0 950260764#0.14 950260764#0.20 950260764#0.27 950260764#0.78 950260764#0.85 950260764#0.90 950260764#0.94 950260764#0.98 950260764#1 950260764#2 951350560 -950233986#6 -950233986#5 -950233986#5.12 -950233986#5.15 -950233986#4 -950233986#4.1 -950233986#4.3 -950233986#4.4 -950233986#4.7 -950233986#4.30 -950233986#4.39 -950233986#4.45 -950233986#4.53 -950233986#3 -950233986#2 951132945#0 950233985 -896893025#14 -896893025#14.20 -896893025#13 -896893025#13.17 951349907#0 951132945#3 -876614662#2 -876614662#1 -876614662#0 -952213575#10 -951998789 -951998789.89 -951998789.91 -951998789.95 -951998789.98 -951998787#0 -951998787#0.10 -951998787#0.14 -951998787#0.18 -951998787#0.21 951998783#2 -951998785#1 -951998790 -896893023#6 -896893023#6.20 -896893023#6.24 -896893023#6.27 -896893023#6.30 -896893023#5 -896893023#5.8 -896893023#4 -896893023#4.15 -896893023#3 -896893023#3.6 -896893023#3.28 -896893023#3.33 -896893023#2 -896893023#2.10 -896893023#2.21 -896893023#2.33 -896893023#1 -896893021#12 -896893021#12.33 951988586#0 951988586#0.20 951988586#1 951988586#1.7 951988585#0 951988585#1 -952213575#0 -896893021#9 -896893021#9.73 -952213570#2 -877388728#0 -877388728#0.25 -877388728#0.66 -896893021#4 -896893021#4.33 896893020#0 896893020#0.22 896893020#0.45 -952213570#0 -952213570#0.40 -952248230#2 -951988588#1 -951988617 -951988590#5 951988589 951988589.27 951988589.31 951988589.35 951988589.38 -952248230#0 -951988592#1 -951988592#1.72 -951988592#1.76 -951988592#1.81 -951988592#1.85 -951988592#1.88 -951988592#1.92 -951988592#1.145 -951988592#1.154 -951988592#1.163 951988591#2 951988591#2.11 951988591#2.25 951988591#2.39 951988591#3 896893019#0 896893019#0.19 951998769#0 951998769#1 896892989#1 896892989#1.36 896892989#2 951998768#0 896893025#1 896893025#1.15 896893025#2 896893025#2.35 896893025#4 896893025#4.15 -951998765#1 -951998765#1.24 -951998765#1.30 -896892989#5 877388646#1 877388646#1.12 877388646#1.35 896892987#2 896892987#2.13 896892987#3 -951998764#0 -951998764#0.32 -951998764#0.41 -951998764#0.52 896893025#7 896893025#7.15 896892986#0 896892986#1 896892986#1.7 896892986#1.21 896892986#2 896892986#2.44 896892986#2.82 -896892984#2 -896892984#1 951998762#0 951349909#1 876614662#4 876614662#4.24 876614662#4.82 876614662#4.124 876614662#5 -896892983#7 -896892983#6 -896892983#5 -896892983#5.16 -951354774#1 -951354775 -951349907#2 -951349907#2.14 -951349907#2.28 -951349907#2.40 -951349907#2.47 -951349907#2.56 951349909#3 951354778 951354778.30 951354778.38 951354778.43 951354778.48 951354778.53 951354778.60 -951350966#3 -951350966#2 -951350966#2.8 -951350966#2.10 -951350966#2.12 -951350966#2.14 -951350966#2.16 -951350966#2.19 -951350966#2.59 -951350966#2.61 -951350966#2.63 -951350966#2.64 -951350966#2.66 -951350966#2.78 -951350966#2.82 -951350966#2.87 -951350966#2.94 -951350966#1 -951350966#1.7 -951350966#0 951350967#1 951350967#1.12 951350967#2 896892981#3 896892981#4 896892981#5 951349912#0 951349912#0.14 951349912#0.18 951349912#0.25 951349912#0.33 951349912#0.69 951349912#0.72 951349912#0.74 951349912#0.76 951349912#1 951349912#1.12 951349912#1.14 951349912#1.16 951349912#1.19 -896786335#44 -896786335#44.9 -896786335#44.71 -896786335#43 -896786335#42 -896786335#42.22 -896786335#41 -896786335#40 -896786335#39 -896786335#39.27 -908869251 -908869251.5 -908869251.7 -908869251.10 -908869251.12 -908869251.30 -908869251.35 -908869251.40 -908869251.44 -908869251.48 -908869251.66 -908869251.70 -908869251.73 -908869251.76 -908869251.78 896786248#1 896786248#1.30 896786248#1.43 -896786335#34 -896786335#33 -951354773#3 -951354773#3.20 -951354773#3.23 -951354773#3.26 -951354773#3.28 -951354773#3.30 -951354773#3.32 -951354773#3.34 -951354773#3.38 -951354773#3.40 -951354773#3.43 -951354773#3.45 -951354771#1 -951354771#0 896893028#5 -896786335#29 -896786335#29.17 -896786335#28 -896786335#27 -896786335#27.19 -896786335#26 -896786335#24 -896786335#23 -896786335#23.44 -896786335#22 -896893013#7 -896893013#7.29 -896893013#7.87 -896893013#6 -896893013#6.15 896893003 951995485 -896893005#0 -896893005#0.12 -896893005#0.57 -896893005#0.74 -896893013#3 -896893013#3.24 -896893013#2 896893010 896893010.28 896893010.97 -896893012#5 -896893012#5.11 -896893012#4 -896893007#1 -896893007#1.18 -896893008#1 -896893008#0 896786300#2 896786300#2.40 896786300#2.70 -896893012#1 -896893012#0 -896893012#0.11 -896786303#4 -896786303#4.22 -896786303#3 -896786303#2 -896786303#2.23 951983587#9 877398366#0 877398366#0.11 -909024237#0 -951983583#0 -951983583#0.24 -951983583#0.28 -951983583#0.32 -951983583#0.38 -877396860#0 -877396860#0.8 -877396860#0.28 -896786335#10 -896786335#10.38 -896786335#9 -896786335#8 -896786335#8.39 -951976009#1 -951976009#0 -896786320#1 -896786320#0 896786315#2 896786315#4 896786319#4 896786317#2 896786317#2.28 896786317#3 896786317#3.44 -896786335#3 -896786335#3.10 -896786335#2 -896786335#1 -896786335#1.14 -896786335#0 -951946803#2 -951946803#1 -951946803#1.55 -951946803#1.59 -951946803#1.61 -951946803#1.64 951946795#1 951946795#2 951946795#3 951946795#4 -951946799 951951639#9 951946798#2 951946795#7 951946795#9 951946795#10 951946795#11 951946795#11.34 951946795#11.40 951946795#11.45 -951887683 -951887684 -951887682#6 951887695#5 671756019#0 -951961251#1 951961247#0 951961248#0 951961248#1 -876509484#6 -876509484#6.3 -876509484#6.8 -876509484#6.12 -876509484#6.15 951878264#0 951878264#0.74 951878264#2 -951878263#3 -951878266#4 -951878266#4.37 -951878266#2 -951878266#1 -951878266#1.39 -951878266#1.47"/>
</vehicle>
<vehicle id = "veh20" type= "veh_passenger" depart="21630" >
<route edges =" -45342801#4 45342799#23 45342799#25 45342799#25.7 45342799#25.22 45342799#26 45342799#27 45342799#27.15 45342799#27.20 45342799#27.25 45342799#27.36 972507120#0 -903341083#3 -903341083#2 -903341083#1 -903341083#0 672813677#4 672813677#4.8 -903341082#0 -903341082#0.45 -45342801#2 -951368604 -951368605#0 45342811#1 45342811#2 45342811#2.66 45344273#23 45344273#23.11 -951379890#1 -951379890#1.37 -951379890#1.47 -951379890#0 -951379890#0.11 -951379890#0.26 -951379890#0.32 -951379890#0.35 -951379890#0.37 -951379890#0.41 -951379890#0.82 -951379890#0.84 -951379890#0.86 -951379890#0.88 -951379890#0.89 -951379890#0.91 -951379890#0.93 -45344320#0 -45344320#0.48 -45344320#0.63 -45344320#0.71 -45344320#0.79 -951441770 45342810#5 -973399407#2 -973399407#1 951366784 -951366785 -45342810#8 -45342810#8.5 -45342810#7 -45342810#7.44 44740885#17 -45344273#14 -45344273#14.32 -45344273#13 45342827#0 45342827#0.77 45342827#0.86 45342827#0.92 45342827#0.101 45342827#1 -45342826#0 -45342825#0 45342809#11 -45342831#3 -45342831#2 951421967 -951417480#0 45342805#4 45342823#0 45342823#1 45342824#4 45342825#2 45342825#3 45342825#3.55 45342825#3.65 45342825#3.72 45342825#3.81 45342825#3.88 -45344273#11 -45344273#10 -45344273#10.42 -45344273#9 -45344273#8 -45344273#8.10 -45344273#7 -45344273#7.22 -951384596#1 -951384596#1.24 -951384596#1.31 -951384596#1.36 -951384596#1.46 -951384596#1.54 -951384596#1.60 -951384596#1.72 -951384596#1.107 -951417467 -951417467.14 -951417467.15 -951417467.17 -951417467.18 -951417467.21 -951417467.23 -951417467.24 -951417467.25 951384598#2 -951384597 -951384597.29 -951384597.36 -951384597.43 -45344273#3 -45344273#3.6 -45344273#3.14 -45344273#3.31 -45344273#3.48 -45344273#2 -45344273#2.6 -45344273#2.24 -45344273#1 -45344273#1.7 -45344273#0 -897252881 -45378637#10 -45378637#9 -951404484#10 -951404484#9 -951404484#9.20 -951404484#8 -951404484#6 -951404484#5 951404481 45378639#10 45378639#11 45378639#12 45378639#12.8 -45344310#1 -45344310#0 -45344310#0.10 -45344310#0.18 -45344310#0.30 -45344310#0.41 -45344310#0.52 971495602#8 971495602#8.24 971495602#8.86 -313316104#6 -313316104#5 -313316104#5.12 -313316104#5.27 -313316104#5.46 -313316104#4 -313316104#4.4 -313316104#4.18 -313316104#4.31 -313316104#4.41 -313316104#4.56 -313316104#3 -951347804#2 -951347804#2.16 -951347804#2.19 -951347804#2.23 -951347804#2.26 -951347804#2.30 -951347804#2.33 -951347804#2.35 -951347804#0 -951347804#0.1 -951347804#0.6 -951347804#0.20 -951347804#0.28 -951347804#0.33 -951347804#0.39 45378651#1 45378651#2 45378651#2.13 45378651#3 908560887#0 908560887#0.10 951436329#0 951436329#0.45 951436329#0.47 951436329#0.49 951436329#0.50 951436329#0.52 951436329#1 -908560882#2 -908560882#2.31 -908560882#2.36 -908560882#2.42 -908560882#2.46 -908560882#2.49 -908560882#2.63 908560881#0 908560881#0.35 908560881#0.70 908560881#0.73 908560881#0.74 908560881#0.76 908560881#0.78 908560881#0.81 908560869#1 908560869#1.23 908560869#1.32 908560869#1.55 908560869#1.70 -45378643#0 -45378643#0.26 -45378651#11 -951436654#1 -951436654#1.25 -951436654#1.32 -951436654#1.38 -951436654#1.44 -951436654#1.56 -951436654#1.58 -951436654#1.60 -951436654#1.62 -951436654#1.67 -951436654#1.69 -951436654#1.70 -951436654#1.72 -951436654#1.76 -951436654#1.85 -951436654#1.94 -951436654#1.101 -951436654#1.111 -951436654#1.118 -951436654#1.126 -951436654#1.133 -951436654#0 908560873#1 908560873#3 908560873#3.6 908560873#3.27 -908560866#2 -908560866#2.33 -908560866#2.34 -908560866#1 -908560866#1.1 -908560866#1.2 -908560866#1.4 -908560866#1.15 -908560866#1.32 -908560866#0 -908560866#0.1 -908560866#0.7 -908560866#0.13 -908560866#0.32 -908560874#0 -908560874#0.14 -908560901#17 -908560901#17.7 -908560878 -908560878.43 -908560878.66 -908560878.111 -908560878.142 -908560878.146 -908560878.150 -908560878.154 -908560878.161 -908560878.186 -45378651#8 -45378651#8.10 -45378651#7 -45378651#7.24 -908560885#3 -908560885#3.25 -908560885#3.32 -908560885#3.37 -951347807 -951347808#0 -908560884#0 45378652#1 45378652#1.5 -908560901#10 -908560901#9 -908560901#9.4 -908560901#9.59 -313316104#0 -313316082 -45378649#12 896786296#0 -951355298#2 -951355298#2.7 -951355298#2.9 -951355298#2.11 -951355298#2.15 -951355298#2.38 -951355298#2.43 951355292 -45378649#9 -45378649#9.7 -45378649#7 -45378649#7.4 -45378649#5 -45378649#5.24 -45378649#5.57 -45378649#5.68 -45378649#3 -45378649#3.8 -45378649#2 -45378649#2.8 -45378649#1 -951354765#1 -951354765#1.60 -951354765#1.64 -951354765#1.67 -951354765#1.70 -951354765#1.74 -951354765#1.99 -951354765#0 -896786265#6 -896786265#6.26 -896786265#5 -896786265#4 -896786265#4.59 -951995493#1 951354763#5 -951995492#0 -951995491#0 -896786266#12 909024250#0 909024250#1 909024250#2 909024250#4 909024250#5 909024250#6 909024239#0 909024239#1 909024239#1.17 909024239#2 909024239#2.40 877398366#3 877398366#4 -904371457 904371458#0 904371458#0.18 -904371461 -904371461.26 -904371461.30 -904371461.33 -904371461.36 -904371461.66 -904371461.112 877396860#7 -951995474 -904371460#0 -904371460#0.8 -904371462#1 -904371462#1.14 -904371462#1.100 877396860#9 877396860#9.41 877396860#10 877396860#11 877396860#12 -904286380#1 -904286380#1.6 -904286380#1.33 904286383#3 904286383#3.17 -904286379 -904286381#2 -904286374 904286375#3 -671191680#9 -671191680#8 896786325#0 896786325#0.98 896786325#0.107 896786325#0.114 896786325#0.120 896786325#0.127 896786325#0.178 896786325#1 -896786328#1 -896786328#0 -896786328#0.177 -877395784#20 -877395784#19 -877395784#17 -877395784#17.8 -877395784#17.24 -877395784#15 951946833#0 -951946816#11 951946817#1 951946817#2 -951951641 951946833#3 -951946817#5 -951951636 951951635#2 -951946806#8 -951946806#7 951946807 -951946806#2 -951946806#1 -951946806#1.48 -951946806#1.55 -951946806#1.61 -951946806#1.69 -951946806#1.82 -951946806#1.90 -951946806#1.98 -951946806#0 -952365020 -952365021 -951878231#2 951868619#0 951868620#0 -951868611#1 -951868611#0 951951643#5 951951644#0 -951951642#4 -951951642#3 -951951642#3.15 -951951642#3.18 -951951642#3.20 -951951642#3.23 -951951642#3.36 -951951642#3.39 -951951642#3.41 -951951642#3.43 -951951642#2 -951951642#1 -951951642#0 951878263#6 951878263#7 951878263#8 951878230#4 -951891772#4 -951891772#3 -951878269#14 -951878269#13 -951878269#12 -951878269#10 -951878269#9 951891767 -951891766#0 -950288028#0 951878269#5 951878269#6 -951891764#4 -951887656#2 951891765#1 951891765#2 951891763#1 951891763#2 -951887657 -951887655#1 -951887655#0 904196454#1 904196454#1.35 904196454#2 904196454#4 904196454#5 904196454#6 -951887665 -951961236#0 -951887700#4 904196454#8 904196454#8.42 904196452#6 -951887668#1 951887671#0 -951887673#1 951887669#2 -951887672#2 951887667#7 -904196453#11 951887674#0 951887674#1 951887674#1.3 951887674#1.7 951887674#2 -951887675#1 951887681 -951887679#0 951887678#1 951887678#2 -951887700#8 -951887700#8.24 -951887700#8.28 -951887700#8.30 -877401978#3 -877401978#3.69 -951887664#3 951887663#1 951887663#2 951887661#3 951878266#0"/>
</vehicle>
</routes>
