<?xml version="1.0" encoding="UTF-8"?>
<routes xmlns:xsi="http: // www.w3.org/2001/XMLSchema-instance" xsi:noNamespaceSchemaLocation="http: // sumo.dlr.de/xsd/routes_file.xsd">
<vType id="veh_passenger" vClass="passenger"/>

<vehicle id = "veh0" type= "veh_passenger" depart="0" >
<route edges =" -45342801#4 -45342801#3 -45342801#2 -45342801#1 -45342801#0 45342798#2 45342798#3 45342798#4 45342798#5 45342813#0 45342813#1 45342813#2 -45342814#1 44740902#11 44740902#12 44740902#13 44740902#14 44740902#14.81 44740902#14.94 -874839172#0 -44740943 -313316091#20 951438760#0 951438760#1 -44740929#4 -951438759 44740922#2 44740922#2.25 44740953#0 44740953#2 44740953#3 44740953#4 44740953#5 44740953#6 44740953#7 44740949#2 -44740919#1 -44740919#0 44740920#8 -313316091#0 -313316091#0.27 -313316091#0.72 -313316091#0.80 -971495601#9 -971495601#9.28 -971495601#8 -971495601#7 -971495601#6 -971495601#5 -971495601#3 -971495601#1 -971495601#0 -313316086 -44739144#26 -44739144#24 -44739144#22 -44739144#21 -44739144#20 -44739144#19 -44739144#19.14 -44739144#18 -877398366#21 -877398366#20 -877398366#19 -877398366#18 -877398366#17 -877398366#17.7 -877398366#16 -877398366#15 -877398366#15.29 -877398366#14 -877398366#14.72 -877398366#13 -671191680#14 -671191680#13 -671191680#11 -671191680#9 -671191680#8 -671191680#6 -896786326#1 -896786326#0 -896786328#0 -896786328#0.177 -951951638#10 -951951638#10.18 -951951638#9 -951951638#8 -951951638#7 -951951638#5 -951951638#4 -951951638#3 -951951638#2 -951946794#1 -951946794#0 951946792#1 896786337#8 896786337#8.8 -951887683 -951887684 -951887682#6 -951887682#5 -951887682#4 -951887682#3 951887692 -951887691#0 -951887682#0 -951887700#14 -951961240#3 -951961240#1 -951961245 951891772#0 -951891773 -951891771#0"/>
</vehicle>
<vehicle id = "veh1" type= "veh_passenger" depart="0" >
<route edges =" 45342801#5 45342801#5.32 902433317#3 902433317#4 902433317#6 902433317#7 902433317#8 902433317#8.29 951368593#1 972507120#2 45342812#0 45342812#1 45342811#2 45342811#2.66 45344273#23 45344273#23.11 45344273#24 -897252873#2 -897252873#1 -897252873#1.42 -897252873#0 -897252873#0.25 897252876#4 45344320#2 45344320#3 -45344331#4 45344327#1 903341090 -45344335#4 -950235690#1 -950235690#0 -950235690#0.14 700254525#11 700254524#0 700254523 -700254525#0 45344272#4 950233988#0 45344283#9 45344283#10 45344283#10.15 45344283#10.46 45344283#10.69 45344283#10.88 45344283#10.150 45344283#10.196 45344283#10.260 45344283#10.377 45344283#10.468 45344283#10.514 670655885 670655885.12 896892975 971495602#12 971495602#12.26 971495602#12.77 951442813 951442812#0 -896786335#50 -896786335#49 -896786335#48 -896786335#48.15 -896786335#47 -896786335#46 -896786335#44 -896786335#44.9 -896786335#44.71 -896786335#43 -896786335#42 -896786335#42.22 -896786335#41 -896786335#40 -896786335#39 -896786335#39.27 -896786335#37 -896786335#36 -896786335#34 -896786335#33 -896786335#32 -896786335#32.17 -896786335#31 -896786335#31.22 -896786335#30 -896786335#29 -896786335#29.17 -896786335#28 -896786335#27 -896786335#27.19 -896786335#26 -951995494#1 -951995491#2 -951995491#1 -951995491#0 -896786266#12 909024250#0 909024250#1 909024250#2 909024250#4 909024250#5 909024250#6 909024239#0 909024239#1 909024239#1.17 909024239#2 909024239#2.40 -951983585 -951975994 -896786324#1 -896786324#0 -896786324#0.19 -896786324#0.132 -896786324#0.177 951951639#0 951946803#0 951946795#1 951946795#2 951946795#3 951946795#4 951946795#6 951946795#7 951946795#9 951946795#10 951946795#11 951946795#11.34 951946795#11.40 951946795#11.45 896786337#10 896786337#10.21 -951887700#20 -951887700#19 -671756019#4 -951961235 951961234#1 -951878265#2 -951878265#1 -951878265#0 951878264#2 -951878263#3 -951878266#4 -951878266#4.37 -951878266#2 -951878266#1 -951878266#1.39 -951878266#1.47"/>
</vehicle>
<vehicle id = "veh2" type= "veh_passenger" depart="0" >
<route edges =" 951370989 951370989.40 951370989.47 951370989.53 951370989.56 951370989.62 951370989.64 951370989.67 -902433320#1 -902433320#0 902433321#2 45342799#21 45342809#0 45342809#1 45342809#2 45342809#3 45342809#4 45342809#5 45342809#6 45342809#7 45342809#8 44740885#10 -45342826#1 -45342826#0 45342825#1 45342825#2 45342828#0 45342828#1 45342828#1.100 -45344273#6 -45344273#6.40 -45344273#6.59 -951384598#3 -951384598#2 -951404491 -951404491.16 -951404491.28 -951404491.40 -951404491.51 -951384599#0 700249213#9 700249213#10 700249213#11 45342808#10 45342808#11 45342808#11.24 45342808#12 -897252871 -897252870 -45344310#2 -45344310#1 -45344310#0 -45344310#0.10 -45344310#0.18 -45344310#0.30 -45344310#0.41 -45344310#0.52 971495602#8 971495602#8.24 971495602#8.86 -313316104#6 -45378650#5 -45378650#5.11 -45378650#4 45378645#0 45378645#0.44 -908846596#3 -908846596#2 45378650#1 -908846593 -908846593.73 908560901#8 908560901#8.23 908560901#8.56 -313316104#0 -313316082 -45378649#12 896786296#0 896786296#1 896786296#1.36 -896786262#6 -896786262#6.15 -896786262#5 -896786262#4 -896786262#4.31 -896786262#3 -896786262#3.9 -896786262#1 -896786262#0 -896786262#0.33 -896786262#0.115 -896786260#1 -896786260#1.5 -896786260#0 -896786260#0.52 896786257#4 909024248 909024248.50 -45378665#3 -45378665#3.29 -45378665#3.50 -45378665#2 -45378665#2.36 -45378665#1 -45378665#0 -45378665#0.39 -45378665#0.75 -896786335#14 -896786335#14.27 -896786335#13 -896786335#12 -896786335#12.15 -896786335#11 -896786335#10 -896786335#10.38 -951976010#1 -951976011#0 896786321#2 -896786320#3 -896786320#3.5 -896786320#1 -896786320#0 -896786316#3 -896786316#2 -896786316#1 -896786316#1.33 -896786314 -951930663#1 -951930663#0 -877395784#11 -877395784#11.58 951946825#0 951946825#1 -951946816#4 951946844 877399011#1 951946810#2 -896786337#14 -896786337#14.40 -896786337#14.111 -952365020 -952365021 -951878231#2 -951951643#6 -951951643#5 -951951643#4 -951951643#3 -951951643#2 876509484#2 -951951642#1 -951951642#0 -951878263#5 -951878269#15 -951891772#2 -951891774 951891771#2 951878270#2 877401978#0 877401978#1 951878266#0"/>
</vehicle>
<vehicle id = "veh3" type= "veh_passenger" depart="3605" >
<route edges =" -45342801#4 -45342801#3 -45342801#2 -45342801#1 -45342801#0 45342798#2 45342798#3 -45342837 -45342836#0 -45342818#1 -45342817#2 -45342817#1 45342816#0 45342816#1 45342814#3 -45342803#5 -44740885#8 -45342841 45342802#2 45342803#2 45342820#0 -45342804#3 -45342804#2 -45342804#1 -45342804#0 -45342808#1 -45342808#1.101 -45342844 -45342843#0 44740957#2 44740957#4 -671399051#1 -671399051#0 -44740942#1 -44740942#0 -974189220#4 -951417475#0 44740972#1 -44740969#4 -44740969#2 -951439006 -951439007 -951439008 -44740929#10 -951421954 -951421954.20 44740930#13 44740930#14 44740930#15 -44740962#2 951439009 -44740929#7 -44740929#6 -44740929#5 -951438760#1 -672215964 -672215965#0 -672215965#0.46 -951438759 -44740922#1 -44740922#0 -313316091#16 -313316091#14 -313316091#14.20 -671761561 -45378689#4 -45378690#1 -45378691 -45378682#0 -45378682#0.30 -313316091#8 -313316091#8.29 -44739167#15 -44739167#15.17 -44739167#14 -44739167#13 44740953#4 44740951#0 44740951#1 44740949#1 44740949#2 -44739163#19 -44740918#2 -44740918#1 44740931#0 -44740919#0 -951358792 -951358792.26 -951358792.42 -951358792.53 -951358792.66 896892969#18 -971495601#9 -971495601#9.28 44740934#0 -668599375#2 -668599375#2.17 -668599375#1 -668599375#1.9 -668599375#0 44740916#11 44740916#12 44740916#13 909019768#0 909019768#0.14 909019768#0.25 -909019765 -909019766#0 909019767#1 909019767#1.24 909019767#1.35 -971495601#5 -45378660#1 -45378660#1.21 -45378660#1.52 -45378660#1.88 -45378660#1.126 -908560900#3 951346855#0 951346855#0.40 951346855#0.55 -951346854 -951346854.30 -951346854.33 -951346854.34 -951346854.36 -951346854.39 -951346854.40 -951346854.42 -951346854.50 -951346854.52 -951346854.54 -951346854.56 -951346854.59 -951346854.61 -951346854.62 -951346854.64 -951346854.65 -951346854.67 -951346854.69 -951346854.101 -908560901#21 -908560901#21.18 -908560901#21.74 -908560901#20 -908560901#20.10 -908560901#20.61 -908560901#20.115 -908560901#19 -908560901#19.77 -908560901#19.104 -896786299#0 -896786298 -45378665#19 896786295#0 896786295#0.19 951347815 951347815.27 951347815.37 951347815.47 951347815.52 951347815.56 951347815.58 951347815.61 951347815.65 896786296#13 896786296#13.14 -909024258#1 -909024258#1.26 -951347813#1 -951347813#1.7 -951347813#1.12 -951347813#0 -951347813#0.14 896786295#3 896786295#3.23 -951347814#1 -951347814#1.43 -951347814#1.47 -951347814#0 -951347814#0.2 -951347814#0.5 -909024259#0 896786295#5 -896786282#4 -896786282#4.21 -896786282#4.92 896786281#0 896786280#1 -896786275#5 -896786275#4 -909024257 -909024257.38 -909024257.94 896786280#3 896786295#8 896786295#8.21 896786295#8.23 909024279#0 909024279#0.32 909024278#0 909024278#0.46 909024278#0.119 909024280#1 909024280#1.17 -909024279#4 -909024279#4.31 909024277#0 909024270 909024270.21 909024270.47 896786294#10 -909024271#1 -909024272#1 -909024272#1.11 -909024272#1.35 909024273#0 909024273#0.33 909024273#1 909024273#2 909024273#3 896786296#18 896786296#18.4 896786296#18.17 -903953334#9 -903953334#9.24 -903953334#9.50 -903953334#9.58 -903953327 -903953327.7 -903953327.18 -903953327.71 -903953326#0 -44739144#22 -44739144#21 -951346849 -909778546#0 -903953325#2 -903953325#2.18 -909778547#2 -909778547#0 -44739144#19 -44739144#19.14 -44739144#18 -44739144#16 -44739144#15 -44739144#13 -877396860#22 -877396860#21 -904371477 -904371477.66 -904371478#1 -904371478#1.6 904371476 904371475#1 -904371474#3 -904371474#2 -904371474#1 -904371474#0 -904371474#0.12 -904286386#2 -877396860#15 -877396860#14 -877396860#14.23 896786290#3 909024292 909024292.65 909024293#3 896786290#5 896786277#0 -896786276 -896786276.82 896786294#2 896786294#2.7 951992347 896786277#3 -909024256#0 -909024256#0.28 896786279#5 896786278#1 896786267#2 -904286382#4 -904286382#4.34 -904286382#3 -904286378#1 -904286378#0 -904286380#2 -877396860#12 -877396860#11 -671191680#13 904286381#0 904286381#2 904286381#3 904286381#3.4 904286381#3.18 -904286372#1 -904286375#0 951992355 904286380#0 -904286383#2 -896786290#1 -896786290#1.17 -896786290#0 904286385#13 904286385#13.24 904286385#15 904286385#15.27 904286386#6 904286386#7 951973455 951973456#1 -951973451#0 -671191683#0 -671191683#0.3 -671191683#0.13 -671191683#0.21 904371486#0 904371486#1 904371487#0 904371487#1 904371487#1.29 -904286373#4 -904286373#3 -904286373#3.24 -904286373#3.27 -904286373#2 -904286373#2.6 -904286373#1 -951975997 -671191680#8 -671191680#6 -896786326#1 -896786327#1 -896786327#1.48 -896786327#1.55 -896786327#1.60 -896786327#1.64 -896786327#1.68 -896786327#1.74 -896786327#1.124 -896786327#1.170 -896786327#1.205 -896786327#1.211 -896786327#0 877395784#22 877395784#22.56 904371492#0 904371492#0.68 904371492#2 904371492#3 904371492#4 951973457 904286385#4 904371489#0 671191682#0 671191682#1 671191682#2 904371493#3 904371493#4 -904286385#1 -904286385#0 -952002224#7 -952002224#7.17 -952002224#7.71 -951973426#2 -951951638#8 -951951638#7 951946800#0 951951639#7 -951973430#1 -951951638#4 -951951638#3 -951951638#2 -951946794#1 -951946794#0 951946792#1 896786337#8 896786337#8.8 -951887683 -951887684 -951887682#6 -951887682#5 951887686#0 951887686#1 -951887700#18 -951887690 -951887688#1 -951887688#0 -951887687#0 -951887687#0.5 -951887682#3 -951887682#2 -951887682#2.37 -951887682#1 -951887682#1.2 -951887682#1.5 -951887682#0 951887700#15 -951961233#4 951961244 951961244.37 951961244.40 951961244.43 951961244.47 -951961242#1 -951961242#0 -951961240#1 -951961245 951891772#0 -951891773 -951891771#0"/>
</vehicle>
<vehicle id = "veh4" type= "veh_passenger" depart="3605" >
<route edges =" 45342801#5 45342801#5.32 902433317#3 902433317#4 902433317#6 902433317#7 902433317#8 902433317#8.29 902433317#9 951368594#0 951368594#1 951368594#2 45342812#0 45342812#1 45342811#2 45342811#2.66 45344273#23 45344273#23.11 -951379890#1 -951379890#1.37 -951379890#1.47 -951379889 -951379889.17 -951379889.23 -951379889.29 -951379889.36 -951379889.42 -897252873#1 -897252873#1.42 -897252873#0 -897252873#0.25 897252876#4 897252876#5 897252876#5.34 897252876#6 897252876#7 897252876#8 897252876#9 45344324#0 45344329#3 45344329#4 45344329#5 45344329#6 45344327#0 45344331#4 45344320#4 45344320#5 45344320#5.26 950455054 -45344336#8 -45344336#8.20 -45344336#8.27 -45344336#8.33 -45344335#8 45344320#7 45344320#7.38 45344320#7.55 45344320#7.60 45344320#7.63 45344320#7.67 45344320#7.80 45344320#7.86 950235691#2 950235691#2.4 950400189 -897172091#12 -897172091#10 -897172091#9 699875131#0 699875131#1 -45344335#1 -950235689#2 -950400194#1 -950400193#1 -950400193#0 950400195#1 950400195#1.6 950400195#1.15 950400195#1.29 950400195#1.40 950400195#1.46 950400195#1.55 950400195#1.60 950400195#1.66 950400195#1.74 950400195#1.81 950400195#2 950400195#2.6 45344297#2 45344297#2.7 45344297#2.17 45344297#2.22 45344297#2.28 45344297#2.54 45344297#2.118 950399187#0 950399187#1 951141449 951141449.18 951141449.22 951141449.26 950235689#0 950400192#1 699875131#4 700254525#9 700254525#11 700254524#0 700254524#1 950235700#0 950235694#0 950235694#1 950235694#2 950235694#3 -950235703#3 -950235703#2 -950235703#2.9 -950235703#0 -950235703#0.13 -950235703#0.32 -950235703#0.55 -950235703#0.71 -950235703#0.86 -950235703#0.97 -950235703#0.108 -950235699#4 950235692#4 45344273#36 45344273#36.18 -950238179#1 -950238179#0 950238178#4 950238178#4.14 45344278#2 45344278#2.33 45344278#3 45344278#4 950238180#0 -950238181#3 -950238181#3.14 -950238181#3.23 -950238181#3.29 -950238181#3.37 -950238181#3.46 -950238182#2 -950238182#2.10 -950238182#1 -950238182#1.7 -950238182#1.15 -950238182#1.25 -950238182#0 -950238178#1 -950238178#0 897252880#9 -45344273#40 -950235700#3 -950235700#2 950235697#4 950235697#4.10 950235697#4.13 950235697#4.16 950235697#4.19 950235697#4.22 45344272#2 45344272#2.46 -45344336#3 -45344336#2 950553578#1 950553577#0 950553577#0.25 -950553576 -45344283#2 -45344283#1 -45344283#1.3 -950238191 -950238191.39 950553577#2 45344282#2 45344282#2.1 45344282#2.36 45344282#3 45344284#7 45344284#7.45 45344284#7.106 45344284#8 45344284#9 45344284#10 45344284#11 950241823#4 950241823#5 950241818#3 950241825#1 950241825#1.27 950241821#7 950241821#7.29 950241821#8 951043906#0 951043906#0.33 951043906#0.36 951043906#0.40 951043906#1 951043906#1.45 951043906#1.47 951043906#1.50 951043906#1.53 951043907#1 951043907#1.7 951043907#1.10 951043907#1.14 951043907#1.22 951043907#1.27 -950241821#10 -950241821#10.5 -950241819#2 950241820 950241821#12 950241821#13 -950241818#0 45344271#4 -902433322#2 -950241847#1 -950241847#0 -950241848#4 950241855#0 950241855#1 -950241851#1 -950241850 -950241848#1 950241857#3 950241857#3.27 950241857#3.51 950241857#4 -950243393#0 -950394096#1 -950394095 -950394091#1 -950394091#0 -950394091#0.13 -950394091#0.19 -950394091#0.26 -950241869#1 -950241869#1.4 950394090#1 950394090#2 950394090#2.13 950394090#2.18 -950394093#0 950241233#3 -950241866#7 -950241866#7.13 -950241866#6 -950241866#6.11 -950241866#6.30 -950241865#0 -45344282#5 -45344282#5.52 -45344282#5.87 -45344281#2 950241866#9 -45344284#5 -45344284#4 -45344284#3 -45344284#2 -950553573 -950238193#1 -950238193#0 45344280#14 45344280#14.13 45344280#15 45344283#5 45344283#6 45344283#6.72 45344283#6.89 45344283#6.131 950233989#0 950233989#1 950233989#1.12 950233989#1.21 -700278833#4 -700278833#3 700278832#0 700278832#0.21 700278832#1 -950392123#2 -950392123#2.17 -950392123#2.22 -950392123#2.28 -950392123#0 -950392123#0.9 -950392123#0.20 -950392123#0.27 950241222#1 950241222#1.31 950241222#1.114 950241222#3 -950241223#0 -950241220#3 950390892#0 950390892#0.36 950390892#0.42 950390892#0.47 950390892#0.51 -950389244#0 -950389244#0.11 897252879#14 897252879#14.50 897252879#15 897252879#17 897252879#18 897252879#18.162 897252879#19 897252879#19.29 897252879#20 897252879#21 897252879#21.85 897252879#22 897252879#23 896892972 896892973 896892973.27 896892973.31 -896786335#50 -896786335#49 -896786335#48 -896786335#48.15 -896786335#47 -951354779 -951354779.16 -951354779.25 -951354779.33 -951354779.41 -896892981#9 -896892981#8 -896892981#8.18 -896892981#8.50 -896892981#8.78 -951358829#1 -951358829#1.27 -951358829#1.80 950260764#0 950260764#0.14 950260764#0.20 950260764#0.27 950260764#0.78 950260764#0.85 950260764#0.90 950260764#0.94 950260764#0.98 950260764#1 950260764#2 950260764#3 -950233986#2 951132945#0 951132945#1 -951349908#0 -896893025#13 -896893025#13.17 -896893025#12 -876614662#1 -876614662#0 -951998787#1 -951998787#0 -951998787#0.10 -951998787#0.14 -951998787#0.18 -951998787#0.21 951998783#2 -951998785#1 -951998790 -896893023#6 -896893023#6.20 -896893023#6.24 -896893023#6.27 -896893023#6.30 -896893023#5 -896893023#5.8 -896893023#4 -896893023#4.15 -896893023#3 -896893023#3.6 -896893023#3.28 -896893023#3.33 -896893023#2 -896893023#2.10 -896893023#2.21 -896893023#2.33 896893024#1 -951998773 -951998773.27 -951998773.31 -951998773.36 -951998773.40 896786297#12 896893024#3 896893019#3 896893025#0 896893025#1 896893025#1.15 896893025#2 896893025#2.35 877388646#0 877388646#0.26 877388646#1 877388646#1.12 877388646#1.35 896892987#2 896892987#2.13 951998765#0 951998765#0.36 951998765#0.42 951998765#0.47 951998765#0.57 951998765#1 951998765#1.3 951998765#1.9 896893025#5 896893025#6 896893025#7 896893025#7.15 896893025#9 896893025#9.39 896892985#0 896892985#0.36 896892985#1 951349909#0 -951998762#0 -896892984#0 -896892984#0.11 -876614662#4 -876614662#4.12 -876614662#4.55 -876614662#4.113 -876614662#3 -876614662#3.38 -951132945#3 951349907#1 951349909#3 951349909#5 951349909#5.10 951349909#6 951349909#6.57 950233986#4 950233986#4.24 950233986#4.31 950233986#4.37 950233986#4.46 950233986#4.70 950233986#4.73 950233986#4.74 950233986#4.76 951350965 -951350966#1 -951350966#1.7 -951350966#0 951350967#1 951350967#1.12 951350967#2 896892981#3 896892981#4 896892981#5 951349912#0 951349912#0.14 951349912#0.18 951349912#0.25 951349912#0.33 951349912#0.69 951349912#0.72 951349912#0.74 951349912#0.76 951349912#1 951349912#1.12 951349912#1.14 951349912#1.16 951349912#1.19 -896786335#44 -896786335#44.9 -896786335#44.71 -896786335#43 -896786335#42 -896786335#42.22 896892977#0 896892977#0.14 896892977#1 896892977#1.45 896892977#1.56 -908869250#4 -908869250#4.38 -908869250#3 -908869250#2 -908869250#2.29 -908869250#2.76 -908869250#2.143 908869244#0 -908869233 -896786247#0 -896786247#0.33 -45378649#11 -45378649#11.22 -45378649#10 -45378649#10.20 -45378649#9 -45378649#9.7 896786248#0 896786248#0.6 896786248#0.16 896786248#0.93 896786248#0.127 896786248#0.165 896786248#0.179 896786248#0.211 896786248#1 896786248#1.30 896786248#1.43 -896786335#34 -896786335#33 -896786335#32 -896786335#32.17 -896786335#31 -896786335#31.22 -896786335#30 -896893028#5 951354771#0 -951355290 -951355290.28 -951355290.30 -951355290.31 -951355290.32 -951355290.33 -896893028#3 -896893028#3.26 -896893028#1 -896893028#1.14 -896893028#0 -896893028#0.19 -896786297#1 -896786297#1.36 -896786297#1.87 896892983#11 -951998772 -896893027#0 -896893027#0.51 -896893027#0.118 896786297#4 896786297#4.10 896786297#4.18 896786297#4.21 896786297#4.23 -896893005#4 -896893005#3 -896893005#2 -896893005#2.6 -877388728#10 -877388728#10.145 -896892998#4 -896892998#2 -896892998#2.10 -896892998#1 -896892992 -896892992.49 -896786305#1 -896786305#1.42 -896786308#1 -896786308#1.17 -896786308#0 -896786308#0.15 -896786309#2 -896786309#2.4 -896786309#2.65 -896786309#1 -896786309#0 -896786304#1 -877388976#1 -877388976#1.14 -877388976#1.34 -877388976#1.74 896786308#3 896786308#3.37 896786308#4 896786308#6 896786308#6.25 896893005#0 896893005#0.7 896893005#0.25 896893005#0.69 -951995485 -896893004#0 -896893014#1 896893015#1 896893015#1.26 -896893016#1 896893017#0 -896893018#1 -896893018#1.27 -896893018#0 877388728#14 896786335#26 951358823 951358823.10 951358823.15 951358823.20 951358823.26 951354763#3 951995494#0 -951995491#2 -951995491#1 -951995491#0 -896786266#12 909024250#0 909024249 909024249.20 909024249.72 -896786335#19 -896786335#18 909024244#0 909024243#0 909024243#1 909024243#1.7 909024243#1.11 909024243#1.14 909024243#1.17 909024243#1.74 909024250#2 909024250#4 -909024245 -909024245.13 -909024245.37 -909024245.57 -896786335#16 -896786335#16.7 -896786335#15 -896786335#14 -896786335#14.27 909024236#1 909024236#1.12 909024236#1.82 909024239#1 909024239#1.17 909024239#2 909024239#2.40 877398366#3 -951995475#3 -951995475#2 -951995475#1 -951995475#1.25 -951995475#0 -896786293#0 896786292#2 896786292#2.23 896786292#2.61 -877398520#2 -877398520#2.20 -951995479#1 -951995479#0 -896786286#1 -896786286#1.14 -896786286#0 -896786286#0.12 -877398366#8 -877398366#8.18 -877398366#8.84 -904371459 -904371459.17 -904371459.33 904371460#2 904371460#2.34 904371458#0 904371458#0.18 904371458#1 -877396860#4 -877396860#3 -951975994 -896786325#2 -896786328#1 -896786328#0 -896786328#0.177 -877395784#20 951951639#0 951951639#1 951951639#3 951951639#4 951946801 951946795#3 951946795#4 -951946799 951951639#9 951946798#2 951946795#7 -951946797 951951639#11 951946796#0 951946796#1 951946795#10 951946795#11 951946795#11.34 951946795#11.40 951946795#11.45 896786337#10 896786337#10.21 -951887700#20 -951887700#19 -671756019#4 -951961235 951961234#1 -951878265#2 -951878265#1 -951878266#5 -951878266#5.22 -951878266#5.29 -951878266#5.37 -951878266#4 -951878266#4.37 -951878266#2 -951878266#1 -951878266#1.39 -951878266#1.47"/>
</vehicle>
<vehicle id = "veh5" type= "veh_passenger" depart="3605" >
<route edges =" 951370989 951370989.40 951370989.47 951370989.53 951370989.56 951370989.62 951370989.64 951370989.67 -902433320#1 -902433320#0 902433321#2 -45342799#20 -45342797#4 -45342797#3 -45342797#2 -45342797#1 -45342797#0 45342834#2 45342809#3 -45342798#2 -45342798#1 45342840#0 -45342810#2 -45342810#1 -45342810#0 45342809#5 45342809#6 45342809#7 45342809#8 44740885#10 -45342826#1 -45342826#0 -45342825#0 45342809#11 -45342831#3 -45342831#2 -951417482#2 -951417480#1 -951417480#0 45342805#4 45342809#14 45342824#0 45342833#3 45342833#4 45342823#1 45342824#4 45342825#2 45342828#0 45342828#1 45342828#1.100 -951384596#1 -951384596#1.24 -951384596#1.31 -951384596#1.36 -951384596#1.46 -951384596#1.54 -951384596#1.60 -951384596#1.72 -951384596#1.107 -951417467 -951417467.14 -951417467.15 -951417467.17 -951417467.18 -951417467.21 -951417467.23 -951417467.24 -951417467.25 -951404491 -951404491.16 -951404491.28 -951404491.40 -951404491.51 -951384599#0 700249213#9 700249213#10 700249213#11 45342808#10 45342808#11 45342808#11.24 45342808#12 -897252871 -897252870 -45344310#2 -45344310#1 -45344310#0 -45344310#0.10 -45344310#0.18 -45344310#0.30 -45344310#0.41 -45344310#0.52 971495602#8 971495602#8.24 971495602#8.86 -313316104#6 -45378650#5 -45378650#5.11 -45378650#4 -45378650#3 -45378650#3.29 -45378650#2 -45378650#2.42 -45378650#2.62 -45378650#1 -45378650#0 -45378650#0.43 908846594#1 908846594#1.37 -908846596#0 -908846596#0.31 908560901#7 908560901#8 908560901#8.23 908560901#8.56 -313316104#0 -313316082 -45378649#12 896786296#0 -951355298#2 -951355298#2.7 -951355298#2.9 -951355298#2.11 -951355298#2.15 -951355298#2.38 -951355298#2.43 -951355298#1 -951355298#1.5 -951355298#1.10 951355297#2 951355297#2.63 -896786262#5 -896786262#4 -896786262#4.31 -951355295 951354762#1 951354762#1.1 951354762#1.3 951354762#1.20 896786261 -896786258#4 -896786258#2 -896786258#2.22 896786255#0 896786255#1 896786255#1.2 896786255#1.52 896786296#4 -896786259#2 -896786259#2.6 -896786259#2.30 -896786259#2.64 -896786259#1 -896786259#1.16 -896786259#1.36 -896786259#1.39 -896786259#1.42 -896786259#1.44 -896786259#1.47 -896786259#1.55 -896786259#1.98 -896786260#6 -896786260#6.19 -896786260#4 -896786260#4.11 896786257#1 896786266#5 -896786260#0 -896786260#0.52 896786257#4 909024248 909024248.50 45378665#5 45378665#5.9 -951995477 -951995477.15 -951995477.23 -909024286 -909024289#2 -909024288#1 -909024288#0 -896786287#2 896786292#4 896786292#4.57 896786286#3 896786286#4 896786286#4.10 896786286#4.60 909024289#4 896786283#2 909024287#3 909024287#3.52 -876614861#2 -876614861#1 -876614861#0 -876614861#0.36 877396033#1 877396033#1.18 896786284#0 896786284#0.89 -877398366#11 -877398366#11.11 -877398366#9 896786286#0 896786286#0.25 896786287#0 896786287#0.74 951995479#1 -877398520#0 -877398520#0.16 -877398366#6 -896786291#1 -896786291#1.49 -896786291#0 -896786291#0.44 896786293#0 896786293#2 896786293#2.8 896786293#2.28 896786293#2.36 896786293#2.45 896786293#2.48 896786293#2.52 -45378665#2 -45378665#2.36 -45378665#1 -45378665#0 -45378665#0.39 -45378665#0.75 -896786300#3 -896786300#3.27 -896893012#1 -896893012#0 -896893012#0.11 -896786303#4 -896786303#4.22 -896786303#3 -896786303#2 -896786303#2.23 -896786303#1 -896786303#1.61 951983586#0 951983586#1 896786304#9 896786304#9.20 896786311#11 896786311#11.62 -951976011#1 951976010#1 -896786335#9 -896786335#8 -896786335#8.39 -951976009#1 -951976006#2 -951976006#1 -951976006#0 896786315#4 896786319#4 -896786317#1 -896786317#1.28 -896786317#0 -896786316#2 -896786316#1 -896786316#1.33 -896786314 -951930663#1 951930662#2 -951976000#2 -951976000#2.3 -951976000#2.6 -951976000#2.8 -951976000#2.12 -951976000#1 -951975999 951946833#0 951946833#1 951946833#2 951946833#3 -951946817#5 -951946817#4 -951946817#3 -951946817#2 -951946817#1 -951946816#10 -951946823 -951946821#0 -951946821#0.2 -951946821#0.6 -951946821#0.9 -951946819#1 951946820#0 -951946821#2 951946822 -951946816#7 -951946816#6 -951946816#6.36 -951946816#6.40 -951946816#6.43 -951946816#6.46 -951946816#5 -951946816#5.8 -951946816#5.11 -951946816#5.14 -951946816#5.18 -951946816#4 -951946816#2 -951946816#1 -951946816#0 -951946815#4 951946828 -951946787#4 -951946787#3 -951946787#2 -951946814#2 951946832 -896786337#16 -951946812#2 -951946812#1 -951946813 951946810#1 951946810#2 -896786337#14 -896786337#14.40 -896786337#14.111 -952365020 -952365021 -951878231#2 951868619#0 951868620#0 -951868611#1 -951878231#0 951951645 -951951643#3 -951951643#2 876509484#2 -951951642#1 -951951642#0 -951878263#5 -951878269#15 -951891772#2 -951891774 951891771#2 -951878270#0 -951878270#0.10 -951878270#0.13 -951878270#0.16 -951878270#0.20 -951891766#3 -951891766#2 -951891766#2.2 -951891766#2.6 -951891766#2.10 -951891766#2.15 951891769#0 951891769#0.18 951891769#0.24 951891769#0.29 951891769#0.46 951891769#0.50 -951891768 -950288028#1 -950288028#0 -951878269#4 951878272#0 951878272#1 -951887654#1 -951887655#2 -951887655#1 951887658 -951878272#4 -951891763#2 -951891763#1 951891765#3 951887660#5 -951887659#0 951887661#0 951887661#1 951887662 -951887660#2 -951887660#0 877401978#1 951878266#0"/>
</vehicle>
<vehicle id = "veh6" type= "veh_passenger" depart="7210" >
<route edges =" -45342801#4 -45342799#22 45342809#0 45342809#1 45342809#2 -45342834#2 -45342834#1 -45342834#0 44740902#8 44740902#9 44740902#9.47 -951370984#2 -951370984#1 -951370984#0 -45342803#6 -45342814#3 -45342814#2 -45342814#1 44740902#11 44740885#7 -45342841 -45342802#1 -671399056 671399058#2 44740901#4 44740896#0 44740896#1 -951417474 44740957#8 -44740895#3 -44740895#2 -44740895#2.69 44740972#0 951417475#0 951417475#1 -671399049#1 -671399049#0 -671399051#0 44740942#2 44740942#2.58 -874839172#0 -44740943 -313316091#20 -313316091#19 -313316091#18 -313316091#18.26 -313316091#17 44740922#0 44740922#1 44740922#2 44740922#2.25 44740953#0 -44740923#3 44740927#17 44740922#5 44740922#5.74 44740922#6 44740922#7 44740922#8 955410234 102277232#1 102277232#2 102277232#2.138 44739163#14 44740930#6 44740930#7 44739167#10 -44740926#5 -44740926#4 -951358803 -44740955#0 44740925#3 -44740927#14 44739167#12 -44740953#3 44740940#0 44740940#1 44740940#2 -313316091#12 -313316091#11 -313316091#10 -313316091#10.31 45378682#0 45378682#0.48 45378682#1 45378689#1 45378689#2 45378686#0 45378686#1 -45378658#0 45378639#2 45378639#2.25 45378639#2.39 951439125#0 951439125#0.15 951439125#0.23 951439125#0.33 951439125#1 45378641#1 45378641#1.76 -45378640#3 -45378640#2 45378658#3 -45378683#3 -45378653#6 -45378685#3 -45378685#2 -45378685#1 45378654#0 45378654#1 45378657#4 -313316091#2 -313316091#2.44 -44740931#1 -44740931#0 -44740918#0 44740920#6 44740920#8 -313316091#0 -313316091#0.27 -313316091#0.72 -313316091#0.80 45340579#18 45340579#18.164 45340579#19 45340579#19.12 45340579#19.84 909019791#0 909019791#1 -909019788 -909019789#1 44740916#7 44740916#8 44740916#9 44740916#9.64 44740916#11 44740916#12 -909019766#1 -909019766#1.6 -909019766#1.14 -909019766#1.30 -909019766#1.52 -909019766#0 909019767#1 909019767#1.24 909019767#1.35 -971495601#5 -971495601#3 -971495601#1 -971495601#0 -313316086 -44739144#26 -44739144#24 -44739144#22 -896786294#12 -896786294#12.19 -896786294#12.25 -896786294#12.30 -896786294#12.36 -896786294#12.41 -909024262#1 -909024262#1.12 -909024262#0 702673217#1 702673217#2 -896786289#2 -896786289#1 -896786289#1.72 -896786289#0 -896786289#0.7 -904371479#3 -904371474#3 -904371480 -904371480.19 -904371480.46 -904371480.53 -904371480.60 -904371480.68 -904371480.92 -904286388#3 -904286388#3.17 904371472#0 904371471 -904371473#1 -904371473#1.10 -904371473#0 -904371474#0 -904371474#0.12 904286383#0 -904286384#1 -904286384#1.25 -904371470#1 904286386#4 904286386#4.19 904286386#6 904286386#7 951973455 -951973456#0 -904286387#2 -904286387#2.12 951973453#0 -951973454 951973452#2 -951973451#3 -951992361 -904371488#6 -904371488#5 -904371488#4 -904371488#2 -904371488#2.8 -904371488#2.11 -904371488#2.18 -904371488#1 951992356 951992356.11 951992356.20 951992356.29 -904286385#12 904286375#0 904286372#1 904286381#4 904286381#6 896786290#1 896786290#1.24 896786290#2 896786290#3 896786290#4 896786290#4.40 -909024293#3 -909024293#2 -904286386#0 -877398366#16 -877398366#15 -877398366#15.29 -877398366#14 -877398366#14.72 -877398366#13 -877398366#12 896786284#1 877396860#10 -671191680#13 -671191680#11 -671191680#9 -671191680#8 896786325#0 896786325#0.98 896786325#0.107 896786325#0.114 896786325#0.120 896786325#0.127 896786325#0.178 896786325#1 -896786328#1 -896786328#0 -896786328#0.177 -951951638#10 -951951638#10.18 -951951638#9 -951973426#1 951951639#4 -951973432#1 -951951638#7 -951951638#5 -951973430#0 -952002224#4 -952002224#4.27 -952002224#3 -952002224#3.30 -952002224#3.48 -952002224#3.80 904286410#0 904286410#0.33 904286409#0 -951874860#1 951874872 -951874859#1 -904286409#2 -904286409#2.22 -951874861 904286402#2 951874858#0 951874858#1 951874858#2 896786339#3 896786339#3.3 896786339#4 896786339#4.4 -904286410#3 -904286410#2 -904286411#3 951874850#0 -951874849#1 -951874849#0 -951874848#0 -952002224#1 896786337#4 951951638#0 951951638#1 951951638#2 952000398 951951639#13 -951946794#0 951946792#1 896786337#8 896786337#8.8 -951887683 -951887684 -951887682#6 -951887682#5 -951887682#4 -951887682#3 951887692 -951887691#0 -951887682#0 -951961243 -951961242#0 -951961240#1 -951961245 951891772#0 -951891773 -951891771#0"/>
</vehicle>
<vehicle id = "veh7" type= "veh_passenger" depart="7210" >
<route edges =" 45342801#5 45342801#5.32 902433317#3 902433317#4 951368598#0 951381446#1 951421968#2 951421968#2.9 -45344271#34 -45344271#32 951368595#0 951368595#1 951368595#1.17 951368595#1.34 902433317#8 902433317#8.29 951368593#1 972507120#2 972507120#3 -951366780#1 -951366780#1.2 -951366780#1.41 951366779#0 951366779#1 45342812#1 45342811#2 45342811#2.66 45344273#23 45344273#23.11 -951379890#1 -951379890#1.37 -951379890#1.47 -951379890#0 -951379890#0.11 -951379890#0.26 -951379890#0.32 -951379890#0.35 -951379890#0.37 -951379890#0.41 -951379890#0.82 -951379890#0.84 -951379890#0.86 -951379890#0.88 -951379890#0.89 -951379890#0.91 -951379890#0.93 45344320#1 897252876#5 897252876#5.34 -45344322#2 -45344322#1 -45344322#0 45344273#19 -951441770 45342810#5 -973399407#2 -973399407#1 951366784 -951366785 -45342810#8 -45342810#8.5 -45342810#7 -45342810#7.44 44740885#17 902433295#0 902433295#0.35 902433295#1 902433295#2 902433295#3 45344330#0 45344330#1 45344333#1 45344333#2 -45344331#1 -45344331#0 -45344326#2 -45344326#2.15 -902433295#5 951381433 951381433.13 951381433.15 951381433.17 951381433.18 951381433.19 951381433.23 951381433.25 951381433.26 951381433.27 951381433.29 951381433.31 897172091#5 -951404496 -951404496.25 -951404496.29 -951404496.31 -951404496.34 -951404496.36 897252883#1 -699875130#1 -699875133 897172091#8 897172091#9 -950400190 45344335#3 -950235690#1 -950235690#0 -950235690#0.14 700254525#11 700254525#12 700254525#12.12 950235692#0 950235692#1 950235692#2 950235697#0 950732876 950235699#3 950235692#4 -45344273#35 -45344273#35.27 45344278#0 45344278#0.58 45344278#0.62 45344278#0.65 45344278#1 45344278#2 45344278#2.33 -950780326#2 -903341095#1 -903341095#0 -45344271#17 -950806855#5 -950806855#3 -950806855#2 -950806855#2.23 -950806855#2.29 -950806855#2.33 -950806855#2.39 -950806855#2.43 -950806855#2.49 -950235725#1 950235726#1 -45344277#0 -45344276#2 903373125#0 903373125#1 903373125#1.14 903373125#1.24 903373125#1.33 903373125#1.41 903373125#1.50 950235713#0 950235713#1 950235713#2 950235713#2.43 -950759350#0 -951132942#1 950757963#0 950757963#1 -45344271#24 -45344271#22 -45344271#22.29 -45344271#21 897252886#0 897252886#0.21 897252886#0.44 -950235707#1 -950235707#0 950755152#2 950755152#2.6 950755152#2.12 950755152#2.28 897252882#5 -950235708#2 -950235708#1 -950755155#1 -950755155#1.58 -950755155#1.63 -950755155#1.68 -950755155#1.72 -950755155#1.77 -950755155#1.87 -876567894#58 -876567894#58.4 -876567894#58.9 -876567894#58.17 -876567894#58.22 -876567894#57 -876567894#57.2 -876567894#57.5 -876567894#57.13 -876567894#57.25 -876567894#56 -876567894#56.13 -876567894#56.24 -876567894#55 -876567894#55.10 -876567894#55.28 -876567894#55.80 -876567894#55.100 -876567894#55.109 -876567894#54 -876567894#54.6 -876567894#54.20 -951381438 -951381438.18 -951381438.24 -951381438.29 -951381438.35 -951381438.41 -951381438.47 -951381438.53 -45344271#28 -45344271#28.43 950757969#0 950757969#1 950757969#1.14 -950235712#3 -950235712#3.27 -950235712#3.30 -950235712#3.34 -950235712#3.37 -950235712#1 -950235712#1.23 -950235712#1.27 -951132942#8 -951132942#7 -951132942#7.6 -950757966#1 -950757966#0 950757969#3 950757969#4 950757969#5 -950757962#1 950757961 -950757964#0 950235711#3 951132942#3 951132942#4 -950757960#1 -950757960#0 -902433292#8 -902433292#7 -902433292#6 -902433292#5 -902433292#4 -902433292#3 -950235719#4 950780327 950235714#5 -950235718#0 -950235718#0.4 -950235718#0.11 -950235718#0.19 876614905#1 950235717#0 950235717#0.7 950235717#0.15 950235717#1 950235719#0 950235719#0.14 -951990402 -951990402.22 -951990402.25 -951990402.27 -951990402.29 -951990402.30 950235717#3 950235717#3.7 950235717#3.9 950235717#3.12 950235717#3.15 902822419#7 902822419#8 -902433292#0 -902433292#0.16 45344276#4 45344276#6 -950235727#7 -950235727#6 -950235727#5 -950235727#4 -950806856 -950806856.40 -950806856.46 -950806856.53 -950806856.64 -950235725#3 -950806857 45344277#3 950806851 950806851.32 950806851.35 950806851.38 950806851.40 950806851.42 -950806852#0 -950806852#0.5 -950806852#0.10 -950806852#0.15 -950806852#0.19 -950806852#0.24 45344277#6 950806858 950806853 -950235727#1 -950235727#1.45 -897252880#2 -897252880#2.15 -897252880#1 -897252880#1.19 950641816#4 950641816#4.14 950641816#5 950641816#6 950641816#7 950235729#1 950235729#2 -950235733#2 -950235733#2.11 -950235733#2.21 -950235733#2.34 -950235733#2.46 950641812#3 950641809#0 -950641810 -950641810.14 -950641810.18 -950641810.22 -950641810.27 950235732#1 950235732#2 950235732#3 950641811#0 950641811#0.21 950641811#0.28 950641811#1 950641811#1.3 950641811#1.11 950641811#1.19 950235730#0 950235730#0.10 950235730#0.18 950235730#0.25 950235730#1 -950872165#1 -950872165#0 45344285#7 45344285#7.32 45344285#7.36 45344285#7.39 45344285#7.44 951077739#0 951077739#1 951077739#1.17 951077739#2 951077739#2.3 951077739#2.7 -45344285#4 -45344285#2 -45344285#1 950235732#5 950235732#5.16 951077734#0 -950241846#1 -950241846#1.22 -950241846#0 45344284#11 950241823#4 950929127#1 950241825#0 950241818#4 950241818#5 950241818#5.11 950241818#6 950241818#6.9 -950241831#0 950929127#3 950929127#3.14 950929127#4 950929127#4.15 950929127#5 -950241832#0 950872160#5 -950241834#3 -950241834#2 -950241834#1 950241821#2 950241821#3 950241821#4 950241828#1 951014861#1 -950241831#3 -950241831#2 950241821#6 950241821#6.22 950241825#2 950241825#2.8 950241825#4 950241825#5 950241825#5.8 -950243393#5 -950243393#5.41 -950241823#9 -951014855#2 -950241819#5 -950241819#4 -950241819#3 -950241821#9 -950241821#8 -950241823#6 -950241823#6.46 -950241818#2 950929121#0 950929121#0.14 950929121#0.18 950929121#0.21 950929121#0.26 950929121#1 950929121#1.8 950929121#1.24 950929121#1.32 950929121#1.39 -950241818#0 -45344271#3 -45344271#3.75 -950241848#5 -950241848#5.35 950241847#0 -950241859#1 -951043905#1 -951043905#1.58 -951043905#1.61 -951043905#1.65 -951043905#1.69 -951043905#0 -950241861#1 -950241861#0 -902433322#0 -902433322#0.69 -45344282#4 -45344282#3 -950238187 950238188#2 -950241847#7 -950241847#7.19 -950241847#6 -950241847#5 -950241847#5.4 -950241847#5.12 -950241847#5.18 -950241847#5.23 -950241847#4 950238186#1 950238186#2 45344271#7 45344271#7.34 45344271#9 45344271#9.23 45344271#10 45344271#11 950806850#0 -950806860#1 -950235723#0 45344271#13 45344271#13.28 -950238184#4 -950238184#3 -950238184#3.42 -950238184#2 -950238184#2.9 -950238184#2.19 -950238184#2.27 -950238184#1 -950238184#0 897252880#8 897252880#8.48 950238178#0 -950238180#5 -950238180#5.16 950238181#0 950238181#1 -950238182#0 950755158 950755158.30 950755158.35 950755158.39 950755158.45 950238179#1 45344273#38 45344273#38.38 45344273#38.50 45344273#38.62 -950235700#3 -950235700#2 -950235697#3 950235695#1 950235695#2 -950235694#0 -950235700#0 -45344336#4 -45344336#3 45344283#4 45344283#5 -950553582#2 -950553582#2.27 -950553582#1 -950553582#1.2 -950553582#1.5 -950553582#1.66 -950553582#1.76 -950553582#1.84 -950553582#1.90 -950553582#1.96 -950553582#1.103 -950553582#1.114 -950553582#1.120 950553581#0 950553581#0.7 950553581#0.14 700278833#6 700278833#6.17 700278833#6.73 700278833#6.117 -45344280#12 -45344280#11 -45344280#11.8 -45344280#11.20 950241233#0 950241233#1 950241233#2 950394093#0 950394093#2 950394093#2.2 950241869#4 950238192#1 950238192#1.16 -950392117#1 950392116#0 950392116#0.39 950392116#1 -45344280#7 -45344280#6 -45344280#6.17 950390890 950390890.34 950390890.38 950390890.42 950390890.46 950241224#1 950241224#1.3 950241224#1.8 950241224#1.32 950241224#1.51 950241224#1.66 950241224#1.78 -950390893#3 -950241223#2 -950241223#2.25 -950241223#2.40 -950241223#2.50 -950241223#2.61 -950241223#2.75 -950241223#1 -950241223#1.3 -950241223#1.20 -950241223#1.36 950241222#4 -45344280#3 -45344280#2 -45344280#2.7 -45344280#0 -45344280#0.24 -45344280#0.53 -897252879#12 -897252879#12.59 -897252879#11 -897252879#11.67 -897252879#11.92 -897252879#10 -897252879#9 -950396019 950396018#0 950397771 950397771.35 950397771.39 950397771.42 950397771.45 950396021#2 950396021#2.14 950396021#2.19 950396021#2.24 950396021#2.28 950396021#2.32 950396018#3 897252878#4 897252878#4.17 -950241855#4 950243393#2 950243393#2.16 950243393#2.38 950243393#2.63 950243393#2.109 -45344271#0 -897252878#8 -897252878#8.12 -897252878#7 -897252878#6 -897252878#6.31 950241207#0 950241207#2 897252879#7 -950309193 -950309195 -950309194 -897172106#13 -897172106#13.15 -897172106#13.79 -897172106#13.160 -897172106#12 -897172106#12.5 -897172106#12.16 -897172106#11 -897172106#11.13 -897172108#13 -897172108#13.42 -897172108#13.49 -897172108#13.64 -897172108#13.76 -950239901#3 -950239901#2 950239900#0 950239883#0 950239883#0.10 950239883#0.21 950239883#0.30 950239883#0.38 950239883#0.48 950239883#1 950239883#1.39 950239883#1.63 950239883#1.82 950239883#1.118 -951132944#2 -951132944#1 -897615335#4 950239888 -897615334#0 -897615334#0.16 -897615335#2 -897615335#2.11 -897615335#2.27 -897615336#2 -897615336#2.22 -897615336#1 -950239895#0 897615334#4 897615334#4.10 897615334#5 897615334#5.21 -950239884#2 -950239884#1 -950239884#0 950239883#3 897615343#2 897615343#2.11 897615343#3 897615343#3.24 -897615337 -897615337.16 -897615337.65 897615338#5 897615338#5.24 897615338#5.44 -950293293 -950239877#2 -950239877#2.21 -950239877#2.42 -950239877#1 -950287958#2 -950287957#0 950287959#2 -950287958#0 897615342#4 897615342#4.20 897615342#4.54 45343180#7 45343180#7.20 950241212#0 -950241214#3 -950241214#3.68 -950241214#3.76 -950241214#3.85 -950241214#3.94 -950241214#2 -950241216 -950241216.24 -950241216.47 950241218 950241218.22 671176477#5 -950239856#3 -950241211#1 -950241211#0 -950241211#0.12 -950241211#0.26 -897615341#2 950287963 950287963.25 950287963.46 950287964#2 897615340#1 897615339#1 897615339#1.27 -950239879#2 -950239879#1 -950287961 950239880#2 950239880#3 -45343180#0 671176477#11 671176469#7 -897315577#3 -897315577#2 -950232592#1 897315579#10 -897615363#0 -897315574#0 -671176469#5 -671176469#4 897315573#0 897315573#1 -897315572#1 -897315572#0 -897315574#2 897615362#0 897615362#1 897615364#1 897615364#2 897315573#3 897315578#14 897315578#14.17 897315571#2 -897315567#3 -897315567#2 -897315567#1 -897315567#1.16 -897315567#0 896940752#3 897615349#0 897615347#0 897615347#0.86 951136519 951136519.12 951136519.25 896940752#5 671176469#1 -897615348#4 897615347#2 897615347#2.22 -951136518 -951136518.19 -951136518.27 -951136518.35 -951136518.44 -951136518.51 -951136518.61 -897615348#2 951136517 897615349#3 897615349#3.11 897615349#3.17 897615349#3.23 897315571#4 897315571#4.31 897315571#5 897315571#6 950232593#1 950232593#1.37 950232593#2 -950232595#6 -950232595#5 -950278753#1 -950278753#1.16 -950278754#1 -950278754#0 -950278756#0 -950232595#2 950239881#2 950232594#3 950232594#3.10 -950278756#2 950278755#0 950278755#1 950278755#2 -950232596#9 -950232596#9.10 -950232596#8 -950232596#7 -950232596#6 -950232596#6.15 -950232596#5 -950232596#5.11 -951141455 -951141457#0 -951141459#0 -950232596#3 -950232596#3.14 951141460 951141458#1 951141458#2 951141458#2.11 951141458#2.18 951141458#2.24 951141458#2.29 951141458#2.37 951141458#2.45 951141458#2.53 951141458#2.64 951141458#2.77 951141458#3 950278751#0 950278751#1 -950232595#0 671176475#6 -950278751#3 -950278751#3.25 -950278751#3.27 -950278751#3.29 -950278751#3.32 -950278758#2 -950239881#0 -671176477#8 -671176477#8.26 -671176477#8.54 -671176477#8.73 -671176477#7 -671176477#7.19 671176475#0 671176475#1 950285698#0 950285698#0.6 950285698#0.11 950285698#0.18 950285698#0.29 950285698#1 950285698#1.5 950285698#1.9 950285698#1.14 -950285701#0 -950276710#5 -950276710#5.9 -950276710#5.17 -950276710#3 -950276710#3.6 -950276710#3.18 -950276710#3.32 -950276710#3.45 -950276710#1 -950276710#1.5 -950276710#1.13 -950276710#0 -950276710#0.10 -950276710#0.32 -950239862#1 -671176478#1 -671176478#1.5 -671176478#1.11 -671176478#1.22 -671176478#1.56 -671176478#0 -671176478#0.38 -671176478#0.42 -671176478#0.45 -671176478#0.50 -671176478#0.54 -897172102 -897172103 -671176472 897252879#17 897252879#18 897252879#18.162 897252879#19 897252879#19.29 897252879#20 950318425#0 950318424#0 -951440585 -951440585.7 -951440585.12 -951440585.20 -951440585.29 -951440585.32 -951440585.35 -951440585.38 -951440585.40 -951440585.42 -951440585.45 -951440585.50 -951440585.53 -951440585.57 -951440585.61 897252879#22 897252879#23 896892972 896892973 896892973.27 896892973.31 -896786335#50 -896786335#49 -896786335#48 -896786335#48.15 -896786335#47 -896786335#46 -896786335#44 -896786335#44.9 -896786335#44.71 -896786335#43 -896786335#42 -896786335#42.22 -896786335#41 -896786335#40 -896786335#39 -896786335#39.27 -896786335#37 -896786335#36 -896786335#34 -908869252#3 -908869252#3.7 -908869252#3.13 -908869252#3.35 -908869252#3.57 -908869252#3.88 -908869252#3.90 -908869252#3.94 -951355291 -951355291.22 -951355291.26 -951355291.31 -951355291.36 -951355291.41 -951355291.50 -951355291.55 -951355291.62 896786335#32 896786335#32.16 -951354773#3 -951354773#3.20 -951354773#3.23 -951354773#3.26 -951354773#3.28 -951354773#3.30 -951354773#3.32 -951354773#3.34 -951354773#3.38 -951354773#3.40 -951354773#3.43 -951354773#3.45 -951354771#1 -951354771#0 896893028#5 -896786335#29 -896786335#29.17 -896786335#28 951358824#0 951358824#0.11 951358824#0.16 951358824#0.21 951358824#0.29 951358824#0.41 951358824#0.47 951358824#0.52 951358824#1 896786253 896786253.47 896786253.111 896786263#4 896786263#6 896786263#7 896786263#7.19 -896786249#0 -896786249#0.32 -896786249#0.71 -896786265#0 896786266#11 896786266#11.13 896786266#12 951995491#0 951995491#1 951995493#0 -951354763#4 951995494#0 951995494#1 -877388728#14 -877388728#13 -877388728#13.55 896893004#0 896893004#2 896893004#3 896893004#3.24 896893004#4 896893002 896893002.42 -896786335#22 -896893013#7 -896893013#7.29 -896893013#7.87 -896893013#6 -896893013#6.15 -896893013#5 -896893013#5.11 -896893013#5.13 -896893013#3 -896893013#3.24 896893011#0 896893011#0.60 -896893012#6 -896893012#6.12 -896893010 -896893010.14 -896893010.84 -896893013#1 -896893013#1.7 -896893009 -896893009.79 -896893012#4 -896893012#3 -896893012#2 -896893012#2.9 896786300#3 896786300#3.17 -896786335#14 -896786335#14.27 909024236#1 909024236#1.12 909024236#1.82 909024239#1 909024239#1.17 -909024237#1 -909024237#1.34 -909024237#1.71 -909024237#1.74 -909024237#1.78 -909024237#1.82 877398366#1 877398366#1.15 877398366#2 877398366#2.36 877398366#3 951995475#4 904371460#5 -877396860#3 -951975994 -896786324#1 -896786324#0 -896786324#0.19 -896786324#0.132 -896786324#0.177 951951639#0 951951639#1 951946802 951946795#2 -951946801 951951639#6 951951639#7 951951639#8 951951639#9 951946798#2 951946795#7 951946795#9 951946795#10 951946795#11 951946795#11.34 951946795#11.40 951946795#11.45 896786337#10 896786337#10.21 -951887700#20 671756019#0 -951961251#1 951961247#0 951961247#1 951961247#1.3 951961249#0 951961249#1 951961249#1.17 951961249#1.19 951961249#1.21 951961249#1.24 -951961255 -951961255.19 -951961255.22 -951961255.25 -951961255.27 951961248#1 876509484#7 876509484#7.4 876509484#7.22 876509484#8 876509484#8.5 -671756018 671756019#2 671756019#2.43 671756019#3 -951961235 951961234#1 -951878265#2 -951878265#1 -951878266#5 -951878266#5.22 -951878266#5.29 -951878266#5.37 -951878266#4 -951878266#4.37 -951878266#2 -951878266#1 -951878266#1.39 -951878266#1.47"/>
</vehicle>
<vehicle id = "veh8" type= "veh_passenger" depart="7210" >
<route edges =" 951370989 951370989.40 951370989.47 951370989.53 951370989.56 951370989.62 951370989.64 951370989.67 -902433320#1 -902433320#0 902433321#2 -45342799#20 -45342797#4 -951368600#1 -951368603#1 -951368603#0 -45342835#1 -45342835#0 -45342797#0 45342834#2 45342809#3 45342809#4 45342809#5 -45342836#2 -951441769 -951370985#0 45342818#3 -45342814#4 -45342803#5 44740885#9 44740885#9.112 44740885#10 -45342826#1 -45342826#0 -45342825#0 45342809#11 -45342831#3 -45342831#2 951421967 -951417480#0 -45342805#3 -45342805#2 -45342805#1 -45342805#1.66 -45342805#0 -45342805#0.29 897252872 897252872.36 45342833#0 45342833#1 45342833#2 45342824#1 45342824#2 45342824#3 45342823#2 45342828#1 45342828#1.100 -45344273#6 -45344273#6.40 -45344273#6.59 -951384598#3 -951384598#2 -951404491 -951404491.16 -951404491.28 -951404491.40 -951404491.51 -951384599#0 -897252868#5 -897252869#2 -897252869#1 -45344315#0 -45344315#0.31 -951404492 700249212#3 45342808#9 45342808#10 45342808#11 45342808#11.24 951417471 951417471.18 951417471.38 951370965#1 951370965#1.28 951370965#1.49 -951384594 -951384594.27 -951384594.32 -951384594.35 -951384594.38 -951384594.41 897252864#1 897252864#3 -897252871 -897252870 -45344310#2 -45344310#1 951404484#0 951404484#0.58 951404484#0.86 951404484#0.91 951404484#0.94 -951404476 -951404476.16 -951404476.32 -951404476.50 -951404476.59 -951404476.68 -951404476.84 -951404476.93 -951404476.101 -951404476.106 -951404476.113 971495602#7 971495602#7.32 971495602#7.56 971495602#8 971495602#8.24 971495602#8.86 -313316104#6 -45378650#5 -45378650#5.11 45378646#0 45378646#0.20 45378646#1 45378646#2 45378646#2.42 -45378647#3 45378645#2 45378645#2.97 908560901#4 908560901#4.8 951435501 951435501.56 -45378647#0 -45378647#0.12 -45378647#0.51 908560901#6 908560901#6.50 908560901#6.91 908560901#6.131 908846596#0 908846596#0.25 908846596#1 45378650#1 -908846593 -908846593.73 908560901#8 908560901#8.23 908560901#8.56 -313316104#0 -313316082 -45378649#12 896786296#0 896786296#1 896786296#1.36 896786296#2 896786296#2.35 -896786254#1 -896786254#1.26 951355294#1 951355294#1.19 951355294#1.22 951355294#1.23 951355294#1.24 951355294#1.25 951355294#1.27 951355294#1.28 951355294#1.31 951355294#1.41 951355294#1.42 951355294#1.43 951355294#1.44 951355294#1.45 951355294#1.47 896786258#4 -896786262#1 -896786262#0 -896786262#0.33 -896786262#0.115 896786260#3 896786257#1 896786257#2 896786257#2.28 896786257#2.57 896786257#3 896786257#3.14 896786257#4 909024248 909024248.50 -45378665#3 -45378665#3.29 -45378665#3.50 -45378665#2 -45378665#2.36 -45378665#1 -45378665#0 -45378665#0.39 -45378665#0.75 -896786300#3 -896786300#3.27 -896893012#1 -896893012#0 -896893012#0.11 896786303#5 896786303#5.27 896786303#5.100 896786303#5.124 896786303#6 896786303#6.29 896786302#1 951983592#0 951983592#0.146 951983592#0.152 951983592#0.157 951983620#0 951983621#1 951983621#1.6 951983621#1.10 -951983587#4 -951983587#4.5 -951983587#4.15 -951983587#4.17 -951983587#4.21 -951983587#4.25 -951983587#4.34 -951983587#3 -951983587#3.2 -951983587#2 -951983587#1 -951983591 951983590 877398739#3 -896786304#8 -896786304#8.29 -951983589#0 951983588#1 951983587#8 -896786303#1 -896786303#1.61 -896786303#0 896786311#13 896786311#13.28 -896786335#10 -896786335#10.38 -896786335#9 -896786321#3 -896786321#3.6 -896786321#3.61 -896786320#3 -896786320#3.5 951930673#0 -951930675 -877396172#3 -877396172#1 -877396172#1.57 -877396172#0 -877396172#0.15 -896786313#2 -896786313#2.55 -951930663#1 -951930663#0 -877395784#11 -877395784#11.58 -877395784#10 -877395784#10.22 -877395784#10.43 951946815#0 -951946826 951946825#1 -951946816#4 951946844 877399011#1 951946810#2 -896786337#14 -896786337#14.40 -896786337#14.111 -952365020 -952365021 -951878231#2 -951878231#1 -951878231#1.26 -951868611#0 -951951643#4 -951951643#3 -951951643#2 876509484#2 876509484#3 -951951650 -951951648#2 -951951642#0 -951878263#5 -951878269#15 -951891772#2 -951891774 951891771#2 951878270#2 951878270#3 951930614 -951878269#7 -951878269#6 951891765#0 951891765#1 -951887654#2 951878272#2 951878272#4 951878272#5 -904196454#1 -904196454#1.67 -904196454#0 700825962#5 700825962#5.39 700825962#6 700825962#7 700825962#7.15 700825962#7.28 700825962#8 700825962#8.3 951887700#0 951887700#1 951887700#2 -951887702#0 -951887666#1 -951887666#0 700825961#6 700825961#6.39 951887664#0 951887664#1 904196454#5 904196454#6 -951887665 -951961236#0 951887700#5 -904196453#13 -904196452#8 -904196452#8.9 -951887672#4 -951887671#1 -951887673#1 951887669#2 -951887672#2 951887667#7 -904196453#11 951887674#0 951887674#1 951887674#1.3 951887674#1.7 951887674#2 951887678#0 951887678#1 951887678#2 -951887700#8 -951887700#8.24 -951887700#8.28 -951887700#8.30 -877401978#3 -877401978#3.69 -951887664#3 951887663#1 951887663#2 -951887661#2 951887662 -951887660#2 -951887660#0 877401978#1 951878266#0"/>
</vehicle>
<vehicle id = "veh9" type= "veh_passenger" depart="10815" >
<route edges =" 951370989 951370989.40 951370989.47 951370989.53 951370989.56 951370989.62 951370989.64 951370989.67 -902433320#1 -902433320#0 902433321#2 45342799#21 45342809#0 45342809#1 45342809#2 45342809#3 45342798#3 -45342837 -951441769 951370985#1 45342809#7 45342809#8 45342809#9 -45342821#1 -45342821#1.44 -45342822#2 -45342820#1 -45342820#0 -45342803#2 -45342803#1 44740957#0 44740957#1 44740957#2 44740902#14 44740902#14.81 44740902#14.94 -874839172#0 -44740943 -313316091#20 -313316091#19 -313316091#18 -313316091#18.26 -313316091#17 -313316091#16 951438764 951438764.91 951438764.163 -44740923#3 -44740923#2 -44740923#1 44740989#1 44740922#7 -44740930#10 -44740930#9 -44740930#8 -44740930#7 44740928#0 44740928#0.19 44740928#1 -951358805#1 -951358805#0 -951358806#0 -44740927#10 -44739163#17 -44739163#16 -44740981#1 -44740981#0 44739156#15 44739156#16 44740927#5 -951358798#1 -951358798#1.14 -951358798#0 -951358798#0.10 -951358798#0.14 -951358798#0.17 -951358798#0.19 -951358798#0.21 -951358798#0.22 -951358798#0.24 -951358798#0.36 -951358798#0.39 -951358798#0.41 -951358798#0.42 -951358798#0.45 -951358798#0.47 951366797 951366797.33 951366797.34 951366797.36 951366797.38 951366797.40 951366797.54 951366797.60 951366797.64 951366797.69 951366797.70 951366797.72 951366797.74 951366797.75 951358797#2 951358797#2.23 951358797#3 -951358800#0 -44740918#1 44740931#0 -44740919#0 -951358792 -951358792.26 -951358792.42 -951358792.53 -951358792.66 896892969#18 -971495601#9 -971495601#9.28 -971495601#8 -971495601#7 -971495601#6 -971495601#5 -971495601#3 -971495601#1 -971495601#0 -313316086 -44739144#26 -44739144#24 909024272#0 909024272#0.29 909024273#0 909024273#0.33 909024273#1 -909024277#3 -909024274 909024275#1 909024273#3 909024276#0 909024276#0.40 951433468 951433468.11 951433468.23 951433468.31 951433468.39 951433468.48 951433468.57 -896786296#16 -896786296#15 -896786296#15.18 -909024259#2 -909024259#2.7 -909024259#2.19 -909024259#2.45 -909024259#2.64 -909024259#1 -909024259#1.12 -909024259#0 896786295#5 896786295#6 896786295#6.12 -896786280#3 909024257 909024257.36 909024257.92 -896786275#3 -896786271#0 -896786272#0 -896786279#0 -896786279#0.19 909024281 909024281.8 896786270#1 -896786269#7 -896786275#0 -896786275#0.11 896786268#2 896786268#2.6 896786268#3 896786295#13 -896786294#5 -896786294#5.6 -896786294#5.10 -896786294#5.13 -896786294#5.16 -896786294#5.19 -896786294#5.22 -896786294#4 -909024256#1 -909024256#1.22 -909024256#1.80 -896786277#3 -951992347 -896786294#2 -896786294#2.7 -702673217#5 -702673217#4 -702673217#3 -702673217#2 -909024261 -909024261.82 -909024262#0 -702673217#0 -44739144#18 671752228#0 -671960103#1 -671960103#0 -671960104#0 -44739144#13 -877396860#22 -877396860#21 -877396860#20 -877396860#20.1 -904371479#3 -904371474#3 -904371474#2 -904371474#1 904371473#0 904371470#0 904371470#1 904371470#2 -896786290#0 -904286385#12 951992355 -904286381#4 -904286372#1 -904286372#0 904286373#4 -904286385#6 -904286385#5 -904286385#5.9 -904371490#4 951973470#0 -951973471#4 -951973471#3 -951973471#2 -951973471#2.11 -951973471#2.14 -951973471#2.17 -951973471#2.20 -904371456#1 -904371456#0 -904371456#0.17 -671191680#0 -671191680#0.38 -671191680#0.44 -671191680#0.48 -671191680#0.53 -671191680#0.58 -671191680#0.63 -671191680#0.76 -896786327#0 877395784#22 877395784#22.56 877395784#23 -952002224#7 -952002224#7.17 -952002224#7.71 -951973426#2 951951638#9 951973434#1 951951639#3 951951639#4 -951973432#1 -951951638#7 -951951638#5 -951951638#4 -951951638#3 -951951638#2 -951946794#1 -951946794#0 951946792#1 896786337#8 896786337#8.8 896786337#10 896786337#10.21 -951887700#20 -951887700#19 -671756019#4 -671756019#3 951961253 951961253.63 951961253.68 951961253.73 951961233#1 -951961234#1 -951961234#0 -951887700#16 -951887700#15 -951887700#14 -951887679#2 951887680 951887678#2 951887700#10 951887700#11 951961240#0 951961240#0.54 951961240#0.57 951961240#0.59 951961240#0.62 -951961245 951891772#0 -951891773 -951891771#0"/>
</vehicle>
<vehicle id = "veh10" type= "veh_passenger" depart="10815" >
<route edges =" 45342801#5 45342801#5.32 902433317#3 902433317#4 902433317#6 902433317#7 902433317#8 902433317#8.29 951368593#1 972507120#2 972507120#3 -951421966 -951369743#0 -951369743#0.6 951369744#2 951369744#2.22 951369744#2.31 951369744#3 951369744#3.5 951369745#2 951369745#2.2 951369745#2.14 951369745#2.20 951369745#2.26 -951369735 -951369735.5 -951369735.10 -951369735.15 -951369735.24 -951369735.30 -951369735.36 -951369740#1 -951369740#1.11 -951369740#1.14 -951369740#1.18 -951369740#1.22 -951369740#1.28 -951369740#1.32 -951369740#1.36 -951369740#1.40 -951369740#1.44 -951369740#1.64 -951369740#0 -951369740#0.4 -951369740#0.11 45344273#27 45344273#27.17 45344273#28 45344273#29 45344273#29.12 45344273#29.34 45344273#30 45344273#30.8 45344273#30.25 45344273#30.39 45344273#31 45344273#31.5 45344273#31.16 45344273#32 45344273#32.22 45344273#32.44 45344273#33 950780326#0 950780326#0.30 950780326#0.63 950780326#1 950780326#1.17 950780326#1.24 950780326#1.29 950780326#1.45 950780326#1.86 950780326#2 45344278#3 -950238182#3 -950238181#2 -950238181#2.23 -950238181#2.28 -950238181#2.32 -950238181#2.36 -950238181#2.40 -950238181#2.43 -950238181#2.49 -950238181#2.63 -950238181#2.65 -950238181#2.67 -950238181#2.70 -950238181#1 -950238181#0 950238180#5 950238180#5.14 -950238178#0 -897252880#8 -897252880#8.44 950238184#0 -950238180#3 -950238180#3.35 -950238180#3.57 -950238180#3.61 -950238180#3.64 -950780324#1 -950780324#1.27 -950780324#1.31 -950780324#1.35 -950780324#1.39 -950780324#1.41 -950780324#1.44 950238184#2 950238184#2.9 950238184#2.18 950238184#2.27 950238184#3 950238184#3.9 -950238180#1 -950238180#0 45344278#5 45344271#17 45344271#19 45344271#19.27 950759347#0 950759347#0.25 -950759346#2 -950759346#2.9 -950759346#2.14 -950759346#2.19 -950759346#2.25 -950759346#2.37 -950759346#2.40 -950759346#2.44 -950759346#2.53 -950759346#2.57 -950759346#2.61 -950759346#2.66 -950759346#1 -950759346#0 -950806855#3 -45344277#1 -950235726#1 950235725#1 950235725#2 950235725#3 950235725#4 -950806852#1 -950806851 -950806851.20 -950806851.22 -950806851.24 -950806851.27 -950806851.30 45344277#4 -950806859 -950806859.27 -950806859.38 950235722#1 950235722#1.5 950235722#1.8 950235722#1.13 950235722#1.26 950235722#2 -45344271#13 -45344271#13.24 -45344271#12 950806850#0 950806850#1 -45344277#8 -45344277#7 950806858 950806853 -950235727#1 -950235727#1.45 897252880#3 897252880#4 950235729#0 950641816#8 950641816#9 950235732#0 950235732#1 950235733#1 -950641812#2 -950641811#1 -950641811#1.17 -950641811#1.24 -950641811#1.33 -950641808 -950641808.16 -950641808.18 -950641808.20 -950641808.23 950235732#3 950235732#4 -45344285#0 45344271#7 45344271#7.34 -950641813#1 -950641813#1.14 -950641813#1.27 -950641813#1.43 -950641813#1.59 -950641813#0 -950641813#0.15 -950641813#0.21 -950641813#0.27 950241847#6 950241847#7 950241847#7.10 950238188#3 950238188#4 950641816#13 950641816#13.45 -45344282#0 -45344272#0 -45344273#40 -950235700#3 950235699#0 950235695#0 950235695#1 950235702 -950732875#0 -950235697#0 -950235692#2 -950235692#1 950235694#3 -950235703#3 -950455051#1 -950455051#1.51 950455050 950455050.9 950455050.11 950455050.13 950455050.15 950455050.26 950455050.29 950455050.31 950455050.34 950455050.49 950455050.55 950455050.63 951381436 951381436.26 951381436.34 951381436.39 951381436.45 -897252875#0 -897252875#0.4 -897252875#0.15 -897252875#0.35 897252876#3 897252876#4 45344320#2 45344320#3 -45344331#4 45344327#1 -897172091#10 -897172091#9 -897172091#8 -897172091#6 -897172091#5 -897172091#4 -897172091#3 -897172091#1 -897172091#0 -45344296#0 -45344296#0.92 -45344296#0.150 -901885452#0 -897252884#0 -45344329#1 -45344329#0 45344291#3 45344291#3.27 45344291#3.54 45344291#3.63 45344291#3.68 45344291#3.139 45344291#4 45344291#4.21 -45344294#4 -45344294#4.7 -45344294#4.18 -45344294#3 -45344295#2 -45344295#2.38 -45344295#2.87 45344305#0 45344305#1 -45344304#8 -45344304#8.11 -45344304#7 -45344304#6 -45344304#6.5 -45344304#6.31 -45344304#6.62 -45344304#5 -45344286#12 -45344286#11 -45344286#9 -45344286#9.15 -45344286#9.41 -45344286#9.67 -45344286#8 -45344286#7 -45344286#6 -45344286#6.52 -45344286#4 -45344286#4.11 -45344286#3 -45344286#3.9 -45344286#3.30 -45344286#3.45 -45344286#2 -45344286#2.12 -45344286#2.42 951440588 951440588.19 951440588.23 951440588.28 951440588.33 951440588.54 951440588.59 951440588.67 951440588.90 951440588.105 951440588.109 951440588.113 951440588.119 951440588.124 951440588.129 951440588.138 951440588.140 951440588.143 951440588.148 951440588.162 951440588.168 951440588.174 951440588.183 951440588.193 951440588.221 951440588.225 951440588.229 951440588.234 951440588.238 951440588.244 951440588.248 951440588.251 951440588.254 951440588.258 702632122#3 -702632123#3 -702632123#2 -702632123#1 -702632123#1.4 -702632123#0 45344272#13 45344272#13.4 45344272#13.35 45344298 896892974 971495602#11 971495602#12 971495602#12.26 971495602#12.77 951442813 951442812#0 -896786335#50 -896892981#13 -896892981#13.5 -896892981#13.13 -896892981#12 -896892981#10 -896892981#10.8 -896892981#9 -896892981#8 -896892981#8.18 -896892981#8.50 -896892981#8.78 896892979 896892979.23 896892979.41 951349912#1 951349912#1.12 951349912#1.14 951349912#1.16 951349912#1.19 951358828 951358828.11 951358828.13 951358828.16 951358828.19 951358828.22 951358828.26 951358828.29 951358828.32 951358828.42 951358828.46 951358828.50 951358828.53 951358828.57 -896786247#8 -896786247#7 -896786247#7.2 -908869249#2 -908869249#2.8 -908869249#2.14 -908869249#2.28 -908869246 -908869247 -908869248#2 -908869248#1 -908869248#1.4 -908869248#1.6 -908869248#1.9 -908869248#1.11 -908869248#1.19 -951358827#2 -951358826 -951358826.10 -951358826.13 -951358826.16 -951358826.19 -951358826.36 -951358826.40 -951358826.44 -951358826.49 -896786335#42 -896786335#42.22 896892977#0 896892977#0.14 896892977#1 896892977#1.45 896892977#1.56 -908869250#4 -908869250#4.38 -908869250#3 -908869238 -908869238.92 -896786335#39 -896786335#39.27 -896786335#37 -896786335#36 -951349917#1 -951349917#1.14 -951349917#1.29 -951349917#1.41 -951349917#1.59 -951349918 876614662#9 876614662#9.52 -896786335#32 -896786335#32.17 -896786335#31 -896786335#31.22 -896786335#30 -896786335#29 -896786335#29.17 -896786335#28 -896786335#27 -896786335#27.19 -896786335#26 -896786335#24 -896786335#23 -896786335#23.44 -896786335#22 -896786335#21 -896786335#21.41 -896893011#1 -896893012#6 -896893012#6.12 -896893012#5 -896893012#5.11 -896893012#4 -896893007#1 -896893007#1.18 -896893008#1 -896893006 -896893012#2 -896893012#2.9 -896893012#1 -896893012#0 -896893012#0.11 896786303#5 896786303#5.27 896786303#5.100 896786303#5.124 -896786301 -896786301.70 -896786303#3 -896786303#2 -896786303#2.23 951983587#9 877398366#0 877398366#0.11 -909024237#0 951983583#1 -896786335#11 -896786335#10 -896786335#10.38 -951976010#1 -951976010#0 -896786311#8 -896786311#7 -896786311#6 -896786311#6.24 -896786311#4 -951930671#3 -951930671#3.23 -951930671#2 -951930671#2.8 -951930671#1 -951930671#0 -951930671#0.25 -951930671#0.32 -951930671#0.42 877396172#5 -896786320#0 -896786316#3 -896786316#2 -951930664#5 -877396172#0 -877396172#0.15 -896786313#2 -896786313#2.55 896786314 -896786316#0 -896786319#5 -896786319#5.26 -896786317#1 -896786317#1.28 951976005 896786315#4 -896786319#2 -896786319#1 -896786319#1.31 -896786319#0 -896786319#0.11 -896786335#4 -896786335#4.18 -896786335#3 -896786335#3.10 -896786335#2 -896786335#1 -896786335#1.14 -896786335#0 877395784#17 877395784#17.13 877395784#17.29 -951946816#15 951946795#0 951946795#0.4 951946795#0.7 951946795#0.9 951946795#1 951946795#2 951946795#3 951946795#4 951946795#6 951946795#7 951946795#9 951946795#10 951946795#11 951946795#11.34 951946795#11.40 951946795#11.45 -951887683 -951887684 -951887682#6 951887695#5 671756019#0 -951961251#1 951961247#0 951961248#0 951961248#1 -876509484#6 -876509484#6.3 -876509484#6.8 -876509484#6.12 -876509484#6.15 951878264#0 951878264#0.74 951878264#2 -951878263#3 -951878266#4 -951878266#4.37 -951878266#2 -951878266#1 -951878266#1.39 -951878266#1.47"/>
</vehicle>
<vehicle id = "veh11" type= "veh_passenger" depart="10815" >
<route edges =" -45342801#4 45342799#23 45342799#25 45342799#25.7 45342799#25.22 45342799#26 45342799#27 45342799#27.15 45342799#27.20 45342799#27.25 45342799#27.36 -951370987 -951370987.52 -951370987.54 -951370987.56 -951370987.57 -951370987.59 -951370987.62 -903341083#2 -903341083#1 -951368605#2 -903341082#1 -903341082#0 -903341082#0.45 -45342801#2 -45342801#1 -45342801#0 45342798#2 45342809#4 45342810#0 45342838#0 45342838#1 45342838#2 45342839#1 -45342840#2 671416444#0 671416442#0 -671416441 -671416443#0 671416444#2 45342810#2 -45342840#0 -45342798#0 -45344273#21 -45344273#21.28 -951441770 45342810#5 45342810#6 45342810#6.38 44740885#17 -45344273#14 -45344273#14.32 -45344273#13 -45344273#12 -45344273#11 -45344273#10 -45344273#10.42 -45344273#9 -45344273#8 -45344273#8.10 -45344273#7 -45344273#7.22 -45344273#6 -45344273#6.40 -45344273#6.59 -45344273#5 -45344273#5.6 -45344273#5.15 -45344273#4 -45344273#4.8 -45344273#4.37 -45344273#3 -45344273#3.6 -45344273#3.14 -45344273#3.31 -45344273#3.48 -45344273#2 -45344273#2.6 -45344273#2.24 -951404493 -951404493.17 -951404493.21 -951404493.24 -951404493.26 -951404493.29 -951404493.32 -951404493.38 -951404493.57 -951404493.66 -951404493.74 700249212#1 -951417468 -951417468.27 -951417468.30 -951417468.32 -951417468.34 -45342808#7 -45342808#7.16 -45344273#0 -897252881 -45378637#10 -45378637#9 -951404484#10 -951404484#9 -951404484#9.20 -951404484#8 -951404484#6 -951404484#5 -951404484#4 -951404484#4.8 -951404484#4.11 -951404484#4.13 -951404484#4.15 -951404484#3 -951404484#3.5 -951404484#3.9 -951404484#3.14 -951404484#3.25 -951404484#3.32 -951404484#2 -951404484#2.19 -951404484#2.23 -951404484#2.26 -951404484#2.29 -951404484#0 -951404484#0.3 -951404484#0.6 -951404484#0.11 -951404484#0.38 -45344310#0 -45344310#0.10 -45344310#0.18 -45344310#0.30 -45344310#0.41 -45344310#0.52 971495602#8 971495602#8.24 971495602#8.86 -313316104#6 -313316104#5 -313316104#5.12 -313316104#5.27 -313316104#5.46 -313316104#4 -313316104#4.4 -313316104#4.18 -313316104#4.31 -313316104#4.41 -313316104#4.56 -313316104#3 -313316104#2 -313316104#2.13 -313316104#2.35 -313316104#2.44 -313316104#1 -313316104#0 -313316082 -45378649#12 896786296#0 896786296#1 896786296#1.36 -896786262#6 -896786262#6.15 -951355297#2 -951355297#2.10 -951355297#1 -951355296 -951354759#0 -951354759#0.4 -951354759#0.15 -951354759#0.20 -951354759#0.24 -45378649#5 -45378649#5.24 -45378649#5.57 -45378649#5.68 951354762#0 951354762#0.9 951354762#0.12 951354762#0.15 951354762#0.18 951354762#0.94 951354762#0.96 951354762#0.97 951354762#0.99 951354762#0.100 951354762#0.102 951354762#0.106 951354762#0.107 951354762#0.109 951354762#0.110 951354762#0.112 951354762#0.127 951354762#0.129 951355295 -896786262#3 -896786262#3.9 -896786262#1 -951354764#1 -951354764#0 -951354764#0.33 -951354764#0.44 -951354764#0.55 -951354764#0.67 951354765#0 951354763#1 951358824#1 -896786265#5 -896786265#4 -896786265#4.59 -896786265#2 -896786265#0 896786266#11 896786266#11.13 909024250#0 909024249 909024249.20 909024249.72 -896786335#19 -896786335#18 909024244#0 909024244#1 909024244#1.7 909024244#1.41 909024244#1.69 -909024251 -909024251.41 -896786293#5 -896786293#5.20 896786257#7 896786257#7.17 896786257#7.37 896786257#7.44 896786257#7.49 896786257#7.54 -45378665#1 909024239#0 909024239#1 909024239#1.17 909024239#2 909024239#2.40 877398366#3 -951995475#3 -896786288#1 -896786291#0 -896786291#0.44 896786293#0 896786293#2 896786293#2.8 896786293#2.28 896786293#2.36 896786293#2.45 896786293#2.48 896786293#2.52 45378665#3 45378665#3.37 45378665#3.58 909024287#0 909024287#0.8 909024287#0.15 909024287#0.65 951995477 951995477.33 951995477.41 45378665#7 45378665#7.25 45378665#7.48 45378665#8 -896786283#4 -896786283#4.15 -896786283#4.56 951433465 876614861#4 876614861#5 951358817 951358817.22 951358817.26 951358817.30 951358817.34 951358817.39 951358818#1 951358818#1.4 951358818#1.9 951358818#1.14 951358818#1.27 951358818#1.31 951358818#1.34 951358818#1.36 951358818#1.39 951358818#1.41 951358818#1.43 951358818#1.49 951358818#1.52 951358818#1.55 951358818#1.59 951358818#1.79 951358818#1.81 951358818#1.82 951358818#1.84 951358818#1.86 45378665#14 45378665#14.10 45378665#14.32 896786282#0 896786282#0.41 896786267#0 896786267#0.23 896786267#0.26 896786267#0.28 896786267#0.30 896786267#0.33 896786267#0.53 896786267#0.75 896786267#0.212 -896786269#3 -896786269#2 -896786269#1 -896786269#1.15 -896786269#0 896786283#1 896786283#1.25 896786283#1.45 -909024289#4 -909024289#3 -909024289#3.21 -909024289#2 -909024288#1 -909024288#0 -896786287#2 -896786287#1 951995479#1 -877398520#0 -877398520#0.16 877398366#8 877398366#8.29 877398366#8.95 896786286#0 896786286#0.25 896786286#1 896786286#1.15 896786286#2 896786286#2.19 896786286#3 -877396033#4 -877396033#4.15 896786285 896786285.95 877398366#11 877398366#11.20 877398366#12 -671191680#14 -877396860#10 -877396860#9 -877396860#9.4 -904371462#0 904371463#1 904371463#1.15 -671191680#11 -671191680#9 -904371467#2 -904371467#2.49 -904371467#2.113 -904371467#0 -896786328#2 -896786328#2.49 -896786328#1 -896786328#0 -896786328#0.177 -877395784#20 -877395784#19 -877395784#17 -877395784#17.8 -877395784#17.24 -877395784#15 -877395784#14 -877395784#14.13 951946817#0 -951946816#10 -951946823 -951946821#0 -951946821#0.2 -951946821#0.6 -951946821#0.9 -951946818#2 -951946818#0 951946833#9 951946833#9.22 -951951629 -951946806#7 951946807 -951946806#2 -951946806#1 -951946806#1.48 -951946806#1.55 -951946806#1.61 -951946806#1.69 -951946806#1.82 -951946806#1.90 -951946806#1.98 -951946806#0 -952365020 -952365021 -951878231#2 -951878231#1 -951878231#1.26 -951878231#0 951951645 -951951643#3 -951951643#2 876509484#2 -951951642#1 -951951642#0 -951878263#5 -951878269#15 -951878269#14 -951878269#13 -951878269#12 -951878269#10 -951878269#9 -951878269#7 -951878269#6 -951878269#5 -951878269#4 -951878269#2 -951878269#1 -951878269#1.25 -951878269#1.51 -951878269#1.75 -951878269#1.92 -951887655#4 -951887655#3 -951887655#2 -951887655#1 951887658 951878272#5 904196454#2 951887661#0 951887661#1 951887662 -951887660#2 -951887663#3 951887661#3 951878266#0"/>
</vehicle>
<vehicle id = "veh12" type= "veh_passenger" depart="14420" >
<route edges =" 951370989 951370989.40 951370989.47 951370989.53 951370989.56 951370989.62 951370989.64 951370989.67 -902433320#1 -902433320#0 902433321#2 -45342799#20 -45342797#4 -951368600#1 -951368603#1 951368601#0 -951368602#1 -951368602#0 -45342835#0 -45342797#0 45342834#2 45342809#3 45342798#3 45342798#4 45342818#0 -45342817#2 -45342803#7 951370984#0 951370984#1 951370984#2 44740902#10 44740902#10.9 44740902#11 44740902#12 44740902#13 44740902#14 44740902#14.81 44740902#14.94 -874839172#0 -44740943 -313316091#20 951438760#0 -672215964 672215965#1 44740922#1 44740922#2 44740922#2.25 44740953#0 44740953#2 44740953#3 44740953#4 44740953#5 44740953#6 44740953#7 44740949#2 -44740919#1 -44740919#0 44740920#8 -313316091#0 -313316091#0.27 -313316091#0.72 -313316091#0.80 45340579#18 45340579#18.164 44740932#0 909019790#0 909019790#0.39 -909019789#2 909019788 909019791#2 44740933#0 44740933#1 909019787 -44740932#4 -44740932#3 44740916#8 44740916#9 44740916#9.64 -909019783 -909019783.98 -971495601#3 -44740910#8 -671410531#2 -671410531#1 -671410531#1.53 -671410531#1.57 -671410531#1.63 671410530 -909019784#1 -909019784#1.47 -909019784#0 313316100#8 313316100#8.72 -971495601#0 -313316086 -44739144#26 -44739144#24 903953326#0 903953326#1 -903953325#3 909778546#0 909778546#1 -951361609 903953324#1 903953324#1.22 -44739144#18 671752228#0 -671960103#1 -671960103#0 -671960104#0 -909024265#3 -909024265#2 -909024265#2.29 909024264#0 909024264#1 -877398366#19 896786289#2 896786289#3 -896786294#8 -909024279#5 -909024279#5.21 -909024279#4 -909024279#4.31 -909024279#3 -909024279#2 -909024279#2.12 -909024276#2 951346848#0 951346848#0.15 951346848#0.24 951346848#0.33 951346848#0.42 -909024260 -909024260.37 -909024260.93 -909024260.137 896786295#8 896786295#8.21 896786295#8.23 896786295#9 -896786271#2 -896786271#2.29 -896786271#1 -896786275#2 -896786275#2.8 -896786275#1 -896786275#1.18 896786269#7 -951421977 896786268#3 896786295#13 -896786294#5 -896786294#5.6 -896786294#5.10 -896786294#5.13 -896786294#5.16 -896786294#5.19 -896786294#5.22 -896786294#4 -896786294#3 -896786294#3.26 951992347 -896786277#2 -896786277#0 -896786290#5 -896786290#4 -896786290#4.18 -896786290#3 -896786290#2 -904286383#1 904286384#2 904286384#2.14 877396860#15 904286386#2 904371474#0 904371474#0.21 904371474#1 -904371472#1 -904371472#1.50 904371471 -904371473#1 -904371473#1.10 904371470#0 904371470#1 904371470#2 -904286381#6 -951992355 -904286385#10 -904286385#9 -904286385#8 -904286385#6 -951973468#0 -904371489#1 -904371489#1.14 -904371489#1.36 -904371489#1.40 -904371489#1.44 671191682#0 671191682#1 -951973462#2 -951973460#1 -951973460#0 904371493#2 904371493#3 -671191681#2 -671191681#1 -951973436#2 -951973436#0 -951973436#0.3 -951973436#0.8 -877395784#25 -877395784#25.55 -877395784#23 904371492#0 904371492#0.68 904371492#2 -904371491 904286385#3 -951973457 -904371492#4 951973476#0 951973476#1 -951973471#2 -951973471#2.11 -951973471#2.14 -951973471#2.17 -951973471#2.20 -904371456#1 -904371456#0 -904371456#0.17 -671191680#0 -671191680#0.38 -671191680#0.44 -671191680#0.48 -671191680#0.53 -671191680#0.58 -671191680#0.63 -671191680#0.76 -896786327#0 -877395784#21 -877395784#21.14 -951951638#10 -951951638#10.18 951973434#1 951951639#3 951973426#1 951973426#2 -952002224#6 -952002224#5 -952002224#5.5 -952002224#4 -952002224#4.27 -952002224#3 -952002224#3.30 -952002224#3.48 -952002224#3.80 904286410#0 904286410#0.33 904286409#0 951874860#2 -904286402#0 -904286410#2 -904286411#3 951874850#0 951874850#1 951874850#1.25 951874850#1.28 951874850#1.31 951874850#1.34 951874850#1.54 951874850#1.57 951874850#1.59 951874850#1.62 -951874849#0 -951874848#0 -952002224#1 896786337#4 951951638#0 -952000397 951951639#15 896786337#6 896786337#7 896786337#8 896786337#8.8 896786337#10 896786337#10.21 -951887700#20 -951887700#19 -951887700#18 -951887700#17 -951887700#17.17 -951887700#16 -951887700#15 -951887700#14 -951961240#3 -951961240#1 -951961245 951891772#0 951891772#1 -951891774 -951891771#1 -951891771#0"/>
</vehicle>
<vehicle id = "veh13" type= "veh_passenger" depart="14420" >
[...]
</vehicle>
<vehicle id = "veh18" type= "veh_passenger" depart="21630" >
<route edges =" 951370989 951370989.40 951370989.47 951370989.53 951370989.56 951370989.62 951370989.64 951370989.67 -902433320#1 -902433320#0 902433321#2 -45342799#20 -45342797#4 -45342797#3 -951368601#1 -951368601#0 -951368603#0 45342835#2 45342809#2 45342809#3 45342809#4 45342809#5 -45342836#2 -45342836#0 45342818#2 45342818#3 -45342814#4 -45342803#5 -45342803#4 -45342803#3 -45342803#2 -45342802#2 -45342802#1 -671399056 671399058#2 -44740901#3 -44740901#2 -671399049#1 -671399049#0 -671399051#0 -44740942#1 -44740901#0 -313316089 -951438761 44740929#6 44740929#7 44740929#8 -44740960#1 -44740960#0 -44740930#13 -44740930#12 44740929#0 44740967#4 -44740922#3 44740953#0 44740953#2 44740940#0 44740940#1 -44740948#1 -951438765 313316091#11 45378690#0 45378690#0.38 45378690#1 -45378689#2 -45378689#1 -45378689#0 -45378683#0 -45378683#0.55 -313316091#6 -313316091#5 -313316091#5.44 -313316091#4 -313316091#4.67 -45378657#4 -45378657#3 -45378657#3.57 -45378657#3.61 -45378657#3.65 -45378657#3.69 -45378657#3.73 -45378657#3.78 -45378672 -45378672.64 45378673 -45378657#1 -44740931#2 -44740931#2.59 -313316091#1 -313316091#1.32 -313316091#0 -313316091#0.27 -313316091#0.72 -313316091#0.80 -971495601#9 -971495601#9.28 -971495601#8 -971495601#7 -971495601#6 -971495601#5 -971495601#3 -971495601#1 -971495601#0 -313316086 -44739144#26 -44739144#24 909024272#0 909024272#0.29 909024272#1 909024272#1.30 909024272#1.53 -909024271#0 -909024271#0.59 -909024271#0.78 -909024277#1 -909024277#1.20 -909024277#0 909024279#4 909024279#4.20 -909024280#1 -909024280#1.18 909024278#1 909024278#1.42 -896786294#6 -896786294#5 -896786294#5.6 -896786294#5.10 -896786294#5.13 -896786294#5.16 -896786294#5.19 -896786294#5.22 -896786294#4 -896786294#3 -896786294#3.26 -896786294#2 -896786294#2.7 -896786294#0 -896786294#0.13 877398366#17 877398366#17.93 -909024294#1 -909024294#0 -909024294#0.55 -877396860#17 -877396860#17.23 -877396860#16 904286386#2 904286386#3 904286386#3.9 904286386#3.31 904371470#1 -904286384#0 904371468 904371468.35 904371468.46 904371468.50 904371468.53 904371468.59 -904371488#1 -904371488#0 -904371488#0.22 -904286385#9 -904286385#8 -904286373#4 -904286373#3 -904286373#3.24 -904286373#3.27 904286371 -671191680#6 -671191680#5 -951973470#1 -951973470#1.3 -951973470#1.6 -951973470#1.10 -951973471#4 -904371456#2 -904371456#2.22 -904371456#1 -904371456#0 -904371456#0.17 -671191680#0 -671191680#0.38 -671191680#0.44 -671191680#0.48 -671191680#0.53 -671191680#0.58 -671191680#0.63 -671191680#0.76 -896786327#0 -877395784#21 -877395784#21.14 -951951638#10 -951951638#10.18 951973434#1 951951639#3 951951639#4 -951973432#1 -951951638#7 -951951638#5 -951951638#4 -951951638#3 -951951638#2 -951951638#1 -952000397 951951639#15 896786337#6 896786337#7 896786337#8 896786337#8.8 896786337#10 896786337#10.21 -951887700#20 -951887700#19 -671756019#4 -951961235 -951961234#0 -951887700#16 -951887700#15 -951961243 -951961242#0 -951961240#1 -951961245 951891772#0 951891772#1 -951891774 -951891771#1 -951891771#0"/>
</vehicle>
<vehicle id = "veh19" type= "veh_passenger" depart="21630" >
<route edges =" 45342801#5 45342801#5.32 902433317#3 902433317#4 902433317#6 902433317#7 902433317#8 902433317#8.29 902433317#9 951368594#0 951368594#1 951368594#2 972507120#3 -951369746#4 -951369746#4.24 -951369746#4.27 -951369746#4.29 951369745#0 -951381440 -951369738 -951369738.5 -951369738.18 -951369738.24 -951369738.31 951369741#4 -951369746#0 -951369746#0.7 -951369748#0 -951369748#0.14 -951369748#0.17 -951369748#0.19 -951369748#0.22 951379886#1 951379886#1.14 951379886#2 951379886#2.14 951379886#2.19 951379886#2.22 951379886#2.25 951379886#2.28 -951369741#1 -951369741#1.20 -951369741#1.25 -951369741#1.30 -45344273#26 897252876#0 897252876#0.16 897252876#0.57 897252874 -897252875#2 -897252875#2.29 -897252875#0 -897252875#0.4 -897252875#0.15 -897252875#0.35 -45344336#9 -45344336#9.10 -45344336#9.61 -45344336#9.126 -45344336#9.147 -45344336#8 -45344336#8.20 -45344336#8.27 -45344336#8.33 -45344336#7 -45344336#7.6 -45344336#6 -45344336#6.35 -950235695#3 -950235694#0 -950235700#0 -700254524#1 -700254524#0 -700254525#11 -700254525#9 -699875131#4 -950400192#1 -950400192#0 950400193#1 -950400194#0 950400195#2 950400195#2.6 -45344297#0 -45344297#0.11 -897252883#1 951404496 951404496.55 951404496.57 951404496.59 951404496.62 951404496.65 897172091#6 -45344326#3 -45344326#2 -45344326#2.15 -45344326#0 -45344326#0.20 -45344326#0.39 -45344330#0 -902433295#3 -902433295#2 897252876#9 45344324#0 45344324#1 45344324#1.27 45344324#1.42 45344324#1.62 45344324#1.71 45344324#1.113 -897172091#3 -897172091#1 -897172091#0 -45344294#6 -45344294#6.9 -45344294#6.25 -45344294#5 -45344294#5.7 -45344291#4 -45344291#4.36 -951370958 45344288#1 45344288#1.10 45344288#1.64 45344288#1.123 45344288#1.180 951370977 45344292#1 951384595#0 951384595#0.37 951384595#0.57 951384595#0.95 951384595#0.97 951384595#0.100 951384595#1 951384595#1.2 951384595#1.4 -45344290#0 -45344290#0.39 -45344290#0.42 -45344290#0.45 -45344290#0.47 -700249213#6 -700249213#5 -700249213#5.52 -700249213#4 -700249213#4.10 -700249213#4.16 -700249213#4.21 -700249213#4.79 897252868#1 897252868#1.11 897252868#1.31 -45344314#4 -45344314#4.42 -45344314#3 700249213#0 700249213#1 700249213#2 -45344287#3 -45344287#3.35 -45344287#3.82 -897252863#7 -897252863#6 -897252863#5 -897252863#3 951370976#0 951370976#0.68 951370976#0.71 951370976#0.73 951370976#0.76 951370976#0.78 951370976#0.81 951370976#1 45344290#3 45344290#3.33 45344290#3.44 45344290#3.54 897252863#0 897252863#0.12 897252863#0.19 -45344304#10 -45344304#9 -45344305#1 45344290#5 45344290#5.39 45344290#5.109 45344294#1 897252857 897252858#2 -897252852#6 -897252852#6.26 -897252852#5 897252849 -897252850#2 -897252850#2.11 -897252850#2.29 -897252850#1 -897252850#1.5 -897252850#0 -897252853 45344304#2 45344304#2.14 45344304#3 45344304#3.13 -45344286#12 -45344299 -45344299.40 -45344299.79 -45344299.80 -45344299.82 -45344299.84 -45344299.86 -45344299.89 -45344299.97 -45344299.99 -45344299.101 -45344299.106 -896892971#1 -896892971#0 -896892971#0.14 -896892971#0.28 -896892971#0.54 -896892971#0.88 -45344286#8 -45344286#7 -702632122#4 -702632122#4.41 -702632122#4.57 -702632122#4.62 -702632122#4.67 -702632122#4.71 -702632122#4.73 -702632122#4.77 -702632122#3 -951384601#1 951384600 -702632123#2 -702632123#1 -702632123#1.4 -702632123#0 45344272#13 45344272#13.4 45344272#13.35 45344298 896892974 971495602#11 971495602#12 971495602#12.26 971495602#12.77 951442813 951442812#0 -896786335#50 -896892981#13 -896892981#13.5 -896892981#13.13 -896892981#12 -896892981#10 -896892981#10.8 951354779 951354779.19 951354779.26 951354779.35 951354779.44 -896786335#46 -896786335#44 -896786335#44.9 -896786335#44.71 -896786335#43 -896786335#42 -896786335#42.22 -896786335#41 -896786335#40 -896786335#39 -896786335#39.27 -896786335#37 -896786335#36 -896786335#34 -896786335#33 -951354773#3 -951354773#3.20 -951354773#3.23 -951354773#3.26 -951354773#3.28 -951354773#3.30 -951354773#3.32 -951354773#3.34 -951354773#3.38 -951354773#3.40 -951354773#3.43 -951354773#3.45 -951354773#2 -951354773#2.2 -951354773#2.27 -951354773#2.50 -951354773#2.74 -951354773#2.80 -951355289#1 -951355289#0 896893016#0 896893017#0 -896893018#1 -896893018#1.27 -896893018#0 -877388728#13 -877388728#13.55 896893004#0 -896893003 896893013#6 896893013#6.11 951995483 896893004#3 896893004#3.24 896893004#4 896893002 896893002.42 -896786335#22 -896786335#21 -896786335#21.41 -896786335#19 -951995495 -909024243#0 -909024244#0 -896786335#17 -896786335#17.2 -896786335#16 -896786335#16.7 -896786335#15 -896786300#3 -896786300#3.27 -896893012#1 -896893012#0 -896893012#0.11 896786303#5 896786303#5.27 896786303#5.100 896786303#5.124 896786303#6 896786303#6.29 896786302#1 896786304#6 896786304#7 896786304#7.11 -951983589#0 -951983588#0 951983586#1 896786304#9 896786304#9.20 -896786311#10 951983590 -877398739#2 -877398739#2.80 -951983587#1 -951983587#0 -951983587#0.39 -951983587#0.45 -951983587#0.51 -951983587#0.56 -896786311#8 -896786311#7 -896786311#6 -896786311#6.24 951983602 951930672#1 951930673#4 -951930674 -951930674.86 -951930674.89 -951930674.93 -951930674.97 -951930673#1 -951930675 -877396172#3 896786315#0 896786315#2 896786315#4 896786319#4 896786317#2 896786317#2.28 896786317#3 896786317#3.44 -896786335#3 -896786335#3.10 -896786335#2 951976001#0 -951976002 -951976000#1 -951975999 951946833#0 951946816#12 951946816#13 951946816#13.22 951946816#13.26 951946816#14 951946795#0 951946795#0.4 951946795#0.7 951946795#0.9 951946795#1 951946795#2 -951946801 951951639#6 951946800#1 951946795#4 951946795#6 951946795#7 -951946797 951951639#11 951946796#0 951946804 951946804.28 951946804.31 951946804.34 951946804.37 951946795#11 951946795#11.34 951946795#11.40 951946795#11.45 -951887683 -951887684 -951887682#6 -951887682#5 -951887682#4 951887687#0 951887687#0.26 951887688#0 951887689 951961234#0 951961234#1 -951878265#2 -951878265#1 -951878266#5 -951878266#5.22 -951878266#5.29 -951878266#5.37 -951878266#4 -951878266#4.37 -951878266#2 -951878266#1 -951878266#1.39 -951878266#1.47"/>
</vehicle>
<vehicle id = "veh20" type= "veh_passenger" depart="21630" >
<route edges =" -45342801#4 45342799#23 45342799#25 45342799#25.7 45342799#25.22 45342799#26 45342799#27 45342799#27.15 45342799#27.20 45342799#27.25 45342799#27.36 972507120#0 972507120#2 45342812#0 45342812#1 45342811#2 45342811#2.66 -45344273#22 -45344273#22.6 -45344273#22.18 -45344273#22.35 -45344273#21 -45344273#21.28 -951441770 45342810#5 -973399407#2 -973399407#1 -973399407#0 -44740885#13 -44740885#13.4 -44740885#13.21 -44740885#13.24 -44740885#13.27 -44740885#13.31 -44740885#13.35 -44740885#13.56 -44740885#13.59 -44740885#13.62 -45342810#10 -45342810#10.21 951366785 44740885#15 44740885#15.31 44740885#16 44740885#17 -45344273#14 -45344273#14.32 -45344273#13 45342827#0 45342827#0.77 45342827#0.86 45342827#0.92 45342827#0.101 45342827#1 -45342826#0 45342825#1 -45342824#4 45342823#2 -45342828#0 45342825#3 45342825#3.55 45342825#3.65 45342825#3.72 45342825#3.81 45342825#3.88 -45344273#11 -45344273#10 -45344273#10.42 -45344273#9 -45344273#8 -45344273#8.10 -45344273#7 -45344273#7.22 -45344273#6 -45344273#6.40 -45344273#6.59 -45344273#5 -45344273#5.6 -45344273#5.15 -45344273#4 -45344273#4.8 -45344273#4.37 -45344273#3 -45344273#3.6 -45344273#3.14 -45344273#3.31 -45344273#3.48 -45344273#2 -45344273#2.6 -45344273#2.24 -45344273#1 -45344273#1.7 -45344273#0 -897252881 -45378637#10 45378639#7 -951404483#2 -951404483#1 -951404474#1 951404473 -951404484#6 951404482 45378639#9 45378639#10 45378639#11 -951404475 -951404475.33 -951404475.43 -951404476 -951404476.16 -951404476.32 -951404476.50 -951404476.59 -951404476.68 -951404476.84 -951404476.93 -951404476.101 -951404476.106 -951404476.113 971495602#7 971495602#7.32 971495602#7.56 971495602#8 971495602#8.24 971495602#8.86 -313316104#6 -313316104#5 -313316104#5.12 -313316104#5.27 -313316104#5.46 -313316104#4 -313316104#4.4 -313316104#4.18 -313316104#4.31 -313316104#4.41 -313316104#4.56 -313316104#3 -951347804#2 -951347804#2.16 -951347804#2.19 -951347804#2.23 -951347804#2.26 -951347804#2.30 -951347804#2.33 -951347804#2.35 -951347804#0 -951347804#0.1 -951347804#0.6 -951347804#0.20 -951347804#0.28 -951347804#0.33 -951347804#0.39 45378651#1 45378651#2 45378651#2.13 45378651#3 908560887#0 908560887#0.10 951436329#0 951436329#0.45 951436329#0.47 951436329#0.49 951436329#0.50 951436329#0.52 951436329#1 -908560882#2 -908560882#2.31 -908560882#2.36 -908560882#2.42 -908560882#2.46 -908560882#2.49 -908560882#2.63 -908560882#1 951436655 951436655.55 908560868#1 908560868#1.11 908560868#1.28 908560881#1 908560881#1.17 951347806#0 951347806#0.30 951347806#0.32 951347806#0.34 -951436327 -951436327.3 -951436327.5 -951436327.7 -951436327.22 -951436327.25 -951436327.29 -951436327.34 -951436327.38 -951436327.40 -951436327.51 -951436327.55 -951436327.60 -908560886#1 -908560886#1.3 -908560886#1.6 -908560886#1.11 -908560886#1.25 -908560886#1.40 -908560886#0 -908560886#0.7 -908560888#2 -908560888#2.7 -908560888#2.15 -908560888#2.23 -908560888#2.29 -908560888#2.38 -908560888#2.44 -908560888#2.50 -908560888#0 -908560888#0.34 -908560888#0.66 -45378643#6 -45378643#6.10 -45378643#5 -45378643#5.11 -45378643#4 -45378643#4.5 -45378643#4.18 -45378643#2 -45378643#0 -45378643#0.26 -45378651#11 -45378651#10 -908560874#2 -908560874#2.42 -908560874#2.61 -908560874#2.69 -908560874#2.78 -908560874#2.102 -908560874#2.112 -908560874#1 -908560874#1.11 -908560874#0 -908560874#0.14 -908560901#17 -908560901#17.7 -908560901#16 -908560901#16.20 908560877#0 908560877#0.13 908560877#0.38 908560877#0.62 908560877#0.125 908560877#0.142 908560876 -45378651#7 -45378651#7.24 -45378651#5 -45378651#5.26 -951347808#1 -951347808#0 908560884#1 908560884#1.8 908560884#2 -908560885#0 -908560885#0.26 -908560885#0.53 -908560885#0.85 -908560901#13 -908560901#13.39 -908560901#12 -908560901#10 -908560901#9 -908560901#9.4 -908560901#9.59 -313316104#0 -313316082 -45378649#12 -45378649#11 -45378649#11.22 -45378649#10 -45378649#10.20 -951355292 -951355298#1 -951355298#1.5 -951355298#1.10 951355297#2 951355297#2.63 -896786262#5 -951354759#4 -951354759#4.12 -951354759#3 -951354759#1 -951354759#1.6 951355296 -951355297#0 -45378649#7 -45378649#7.4 908869241#0 908869241#0.15 908869241#0.77 -908869240#0 -908869240#0.1 -908869240#0.4 -908869240#0.7 -908869252#0 -908869252#0.17 -896786335#30 45378649#0 45378649#0.36 45378649#1 45378649#2 45378649#2.17 -896786265#8 896786264 896786264.45 896786264.99 896786263#1 896786263#2 896786263#2.22 -896786253 -896786253.32 -896786253.95 -951358824#1 951354763#2 951354763#3 951354763#4 951995493#1 -896786265#2 -896786265#0 909024253#0 909024253#1 909024253#1.45 -896786293#7 -896786293#6 -896786293#5 -896786293#5.20 -896786293#4 -896786293#3 -896786293#3.1 -45378665#2 -45378665#2.36 -45378665#1 909024239#0 909024239#1 909024239#1.17 909024239#2 909024239#2.40 877398366#3 -951995475#3 -896786288#1 896786291#1 896786291#1.19 877398366#6 -904371459 -904371459.17 -904371459.33 904371460#2 904371460#2.34 904371458#0 904371458#0.18 -904371461 -904371461.26 -904371461.30 -904371461.33 -904371461.36 -904371461.66 -904371461.112 877396860#7 877396860#8 -904371462#0 -904371463#0 904371465#1 904371465#2 904371464 896786325#1 896786325#2 -896786324#1 -896786324#0 -896786324#0.19 -896786324#0.132 -896786324#0.177 -877395784#19 -877395784#17 -877395784#17.8 -877395784#17.24 -951946803#2 -951946816#13 -951946816#13.3 -951946816#13.8 -951946816#12 951946833#1 951946833#2 951951641 951946817#3 951946817#4 -951951636 951951635#2 -951946818#0 951946833#9 951946833#9.22 951946833#11 951946833#11.92 951946833#11.95 951946833#11.98 951946833#11.101 -951946806#0 -952365020 -952365021 -951878231#2 951868619#0 951868620#0 -951868611#1 -951868611#0 -951951643#4 -951951643#3 -951951646 -951951642#2 -951951642#1 -951951642#0 -951878263#5 -951878269#15 -951878269#14 -951878269#13 -951878269#12 -951878269#10 -951878269#9 -951930614 951878270#4 -951887656#2 -951887656#1 951878272#1 951887654#2 951891765#2 951891763#1 -951887659#1 -951887660#5 -951887660#3 -951887662 951887661#2 951887661#3 951878266#0"/>
</vehicle>
</routes>
