<?xml version="1.0" encoding="UTF-8"?>
<routes xmlns:xsi="http: // www.w3.org/2001/XMLSchema-instance" xsi:noNamespaceSchemaLocation="http: // sumo.dlr.de/xsd/routes_file.xsd">
<vType id="veh_passenger" vClass="passenger"/>

<vehicle id = "veh0" type= "veh_passenger" depart="0" >
<route edges =" -45342801#4 -45342801#3 -45342801#2 -45342801#1 -45342801#0 45342798#2 45342798#3 45342798#4 45342798#5 45342813#0 45342813#1 45342813#2 -45342814#1 44740902#11 44740902#12 44740902#13 44740902#14 44740902#14.81 44740902#14.94 -874839172#0 -44740943 -313316091#20 951438760#0 951438760#1 -44740929#4 -951438759 44740922#2 44740922#2.25 44740953#0 44740953#2 44740953#3 44740953#4 44740953#5 44740953#6 44740953#7 44740949#2 -44740919#1 -44740919#0 44740920#8 -313316091#0 -313316091#0.27 -313316091#0.72 -313316091#0.80 -971495601#9 -971495601#9.28 -971495601#8 -971495601#7 -971495601#6 -971495601#5 -971495601#3 -971495601#1 -971495601#0 -313316086 -44739144#26 -44739144#24 -44739144#22 -44739144#21 -44739144#20 -44739144#19 -44739144#19.14 -44739144#18 -877398366#21 -877398366#20 -877398366#19 -877398366#18 -877398366#17 -877398366#17.7 -877398366#16 -877398366#15 -877398366#15.29 -877398366#14 -877398366#14.72 -877398366#13 -671191680#14 -671191680#13 -671191680#11 -671191680#9 -671191680#8 -671191680#6 -896786326#1 -896786326#0 -896786328#0 -896786328#0.177 -951951638#10 -951951638#10.18 -951951638#9 -951951638#8 -951951638#7 -951951638#5 -951951638#4 -951951638#3 -951951638#2 -951946794#1 -951946794#0 951946792#1 896786337#8 896786337#8.8 -951887683 -951887684 -951887682#6 -951887682#5 -951887682#4 -951887682#3 951887692 -951887691#0 -951887682#0 -951887700#14 -951961240#3 -951961240#1 -951961245 951891772#0 -951891773 -951891771#0"/>
</vehicle>
<vehicle id = "veh1" type= "veh_passenger" depart="0" >
<route edges =" 45342801#5 45342801#5.32 902433317#3 902433317#4 902433317#6 902433317#7 902433317#8 902433317#8.29 951368593#1 972507120#2 45342812#0 45342812#1 45342811#2 45342811#2.66 45344273#23 45344273#23.11 45344273#24 -897252873#2 -897252873#1 -897252873#1.42 -897252873#0 -897252873#0.25 897252876#4 45344320#2 45344320#3 -45344331#4 45344327#1 903341090 -45344335#4 -950235690#1 -950235690#0 -950235690#0.14 700254525#11 700254524#0 700254523 -700254525#0 45344272#4 950233988#0 45344283#9 45344283#10 45344283#10.15 45344283#10.46 45344283#10.69 45344283#10.88 45344283#10.150 45344283#10.196 45344283#10.260 45344283#10.377 45344283#10.468 45344283#10.514 670655885 670655885.12 896892975 971495602#12 971495602#12.26 971495602#12.77 951442813 951442812#0 -896786335#50 -896786335#49 -896786335#48 -896786335#48.15 -896786335#47 -896786335#46 -896786335#44 -896786335#44.9 -896786335#44.71 -896786335#43 -896786335#42 -896786335#42.22 -896786335#41 -896786335#40 -896786335#39 -896786335#39.27 -896786335#37 -896786335#36 -896786335#34 -896786335#33 -896786335#32 -896786335#32.17 -896786335#31 -896786335#31.22 -896786335#30 -896786335#29 -896786335#29.17 -896786335#28 -896786335#27 -896786335#27.19 -896786335#26 -951995494#1 -951995491#2 -951995491#1 -951995491#0 -896786266#12 909024250#0 909024250#1 909024250#2 909024250#4 909024250#5 909024250#6 909024239#0 909024239#1 909024239#1.17 909024239#2 909024239#2.40 -951983585 -951975994 -896786324#1 -896786324#0 -896786324#0.19 -896786324#0.132 -896786324#0.177 951951639#0 951946803#0 951946795#1 951946795#2 951946795#3 951946795#4 951946795#6 951946795#7 951946795#9 951946795#10 951946795#11 951946795#11.34 951946795#11.40 951946795#11.45 896786337#10 896786337#10.21 -951887700#20 -951887700#19 -671756019#4 -951961235 951961234#1 -951878265#2 -951878265#1 -951878265#0 951878264#2 -951878263#3 -951878266#4 -951878266#4.37 -951878266#2 -951878266#1 -951878266#1.39 -951878266#1.47"/>
</vehicle>
<vehicle id = "veh2" type= "veh_passenger" depart="0" >
<route edges =" 951370989 951370989.40 951370989.47 951370989.53 951370989.56 951370989.62 951370989.64 951370989.67 -902433320#1 -902433320#0 902433321#2 45342799#21 45342809#0 45342809#1 45342809#2 45342809#3 45342809#4 45342809#5 45342809#6 45342809#7 45342809#8 44740885#10 -45342826#1 -45342826#0 45342825#1 45342825#2 45342828#0 45342828#1 45342828#1.100 -45344273#6 -45344273#6.40 -45344273#6.59 -951384598#3 -951384598#2 -951404491 -951404491.16 -951404491.28 -951404491.40 -951404491.51 -951384599#0 700249213#9 700249213#10 700249213#11 45342808#10 45342808#11 45342808#11.24 45342808#12 -897252871 -897252870 -45344310#2 -45344310#1 -45344310#0 -45344310#0.10 -45344310#0.18 -45344310#0.30 -45344310#0.41 -45344310#0.52 971495602#8 971495602#8.24 971495602#8.86 -313316104#6 -45378650#5 -45378650#5.11 -45378650#4 45378645#0 45378645#0.44 -908846596#3 -908846596#2 45378650#1 -908846593 -908846593.73 908560901#8 908560901#8.23 908560901#8.56 -313316104#0 -313316082 -45378649#12 896786296#0 896786296#1 896786296#1.36 -896786262#6 -896786262#6.15 -896786262#5 -896786262#4 -896786262#4.31 -896786262#3 -896786262#3.9 -896786262#1 -896786262#0 -896786262#0.33 -896786262#0.115 -896786260#1 -896786260#1.5 -896786260#0 -896786260#0.52 896786257#4 909024248 909024248.50 -45378665#3 -45378665#3.29 -45378665#3.50 -45378665#2 -45378665#2.36 -45378665#1 -45378665#0 -45378665#0.39 -45378665#0.75 -896786335#14 -896786335#14.27 -896786335#13 -896786335#12 -896786335#12.15 -896786335#11 -896786335#10 -896786335#10.38 -951976010#1 -951976011#0 896786321#2 -896786320#3 -896786320#3.5 -896786320#1 -896786320#0 -896786316#3 -896786316#2 -896786316#1 -896786316#1.33 -896786314 -951930663#1 -951930663#0 -877395784#11 -877395784#11.58 951946825#0 951946825#1 -951946816#4 951946844 877399011#1 951946810#2 -896786337#14 -896786337#14.40 -896786337#14.111 -952365020 -952365021 -951878231#2 -951951643#6 -951951643#5 -951951643#4 -951951643#3 -951951643#2 876509484#2 -951951642#1 -951951642#0 -951878263#5 -951878269#15 -951891772#2 -951891774 951891771#2 951878270#2 877401978#0 877401978#1 951878266#0"/>
</vehicle>
<vehicle id = "veh3" type= "veh_passenger" depart="3605" >
<route edges =" -45342801#4 -45342801#3 -45342801#2 -45342801#1 -45342801#0 45342798#2 45342798#3 45342798#4 45342818#0 -45342817#2 -45342803#7 951370984#0 951370984#1 45342813#2 -45342814#1 44740902#11 44740885#7 44740885#8 -45342803#4 -45342803#3 45342820#0 45342820#1 -45342822#1 -45342832#1 -45342832#0 -45342804#2 45342831#0 -951417482#2 -951417482#1 -951417482#0 45342805#1 45342805#1.19 951417479 45342809#16 -897252872 -897252872.99 -45342808#2 45342804#0 -45342843#3 -45342843#2 951417477 44740957#1 45342843#0 45342844 -45342808#0 -45342808#0.42 671399046#0 671399046#0.17 671399046#0.59 671399046#1 671399046#2 671399046#2.23 -671399054#1 671399053 -44740885#4 -44740885#3 -44740901#6 -44740901#5 44740896#0 44740896#1 44740896#2 974189220#2 -44740957#8 -44740957#7 -44740957#6 -44740901#2 -671399049#1 -671399049#0 -671399051#0 -44740942#1 -44740901#0 -313316089 -951438761 -44740929#5 -44740929#4 -44740929#3 -44740929#2 951438762 951438763#1 951438763#1.5 44740967#2 44740967#3 44740967#4 -44740927#17 -44740927#16 -44740924#1 -44740924#0 44740926#2 44740926#3 44740926#4 44740925#2 44740925#3 -44740927#14 44739167#12 44740953#4 44740953#5 44740953#6 44740953#7 44740949#2 -44739163#19 -44739163#18 44740927#10 44740927#11 951358802 -951358805#0 951358806#1 44740926#8 -44739163#16 -44740981#1 -44740981#0 44739156#15 44740985#0 44740985#1 44740983#1 -951358800#1 -951358800#0 -44740918#1 44740931#0 -44740919#0 44740920#8 -313316091#0 -313316091#0.27 -313316091#0.72 -313316091#0.80 45340579#18 45340579#18.164 44740932#0 -44740934#4 668599377#0 668599377#0.33 668599376#0 668599376#0.34 668599376#1 668599376#2 668599376#2.6 -668599375#0 -909019783 -909019783.98 -971495601#3 -971495601#1 -971495601#0 -313316086 -44739144#26 -903953334#9 -903953334#9.24 -903953334#9.50 -903953334#9.58 -903953327 -903953327.7 -903953327.18 -903953327.71 -903953326#0 909024272#0 909024272#0.29 909024272#1 909024272#1.30 909024272#1.53 909024271#1 896786294#11 896786294#11.40 896786294#12 896786294#12.25 896786294#12.31 896786294#12.37 896786294#12.41 896786294#12.47 -44739144#21 -951346849 909778546#1 -909778547#0 -44739144#19 -44739144#19.14 -44739144#18 671752228#0 -671960103#1 -951346850 -44739144#15 -909024265#3 952002225#1 -877396860#21 -877396860#20 -877396860#20.1 -877396860#18 -877396860#18.14 909024294#0 909024294#0.52 909024294#1 -877398366#17 -877398366#17.7 -877398366#16 -896786290#5 -896786290#4 -896786290#4.18 909024292 909024292.65 -909024293#2 904286386#1 904286386#1.27 -877396860#15 -877396860#14 -877396860#14.23 -877396860#13 904286380#2 904286380#3 904286380#3.65 -877398366#14 -877398366#14.72 -904286382#4 -904286382#4.34 -904286382#3 -904286382#2 -877396860#11 -877396860#10 -877396860#9 -877396860#9.4 -904371462#0 904371463#1 904371463#1.15 904286381#0 904286381#2 904286381#3 904286381#3.4 904286381#3.18 -904286372#1 904286375#1 904286373#0 -951975997 -671191680#8 -671191680#6 -896786326#1 -896786327#1 -896786327#1.48 -896786327#1.55 -896786327#1.60 -896786327#1.64 -896786327#1.68 -896786327#1.74 -896786327#1.124 -896786327#1.170 -896786327#1.205 -896786327#1.211 -896786327#0 877395784#22 877395784#22.56 904371492#0 904371492#0.68 951973474#0 951973474#1 -951973473#0 951973472#1 -904371491 904286385#3 904286385#4 904286385#5 904286385#5.42 904286385#6 -904371487#1 -904371487#1.16 -904371489#2 -904371489#1 -904371489#1.14 -904371489#1.36 -904371489#1.40 -904371489#1.44 671191682#0 671191682#1 671191682#2 904371493#3 -671191681#2 -951973437#1 -951973437#0 951973436#2 -671191681#0 -904286385#0 -952002224#7 -952002224#7.17 -952002224#7.71 -952002224#6 -952002224#5 -952002224#5.5 951973430#0 951973430#1 951951639#8 951951639#9 951951639#10 951951639#11 951951639#13 951951639#14 951951639#15 896786337#6 896786337#7 896786337#8 896786337#8.8 -951887683 -951887684 -951887682#6 -951887682#5 -951887682#4 -951887682#3 951887692 -951887691#0 -951887682#0 -951961243 -951961242#0 -951961240#1 -951961245 951891772#0 -951891773 -951891771#0"/>
</vehicle>
<vehicle id = "veh4" type= "veh_passenger" depart="3605" >
<route edges =" 45342801#5 45342801#5.32 902433317#3 902433317#4 902433317#6 -951368597 45342799#26 951368596 902433317#8 902433317#8.29 951368593#1 -972507120#0 -951370987 -951370987.52 -951370987.54 -951370987.56 -951370987.57 -951370987.59 -951370987.62 -903341083#2 -903341083#1 -951368605#2 -951368605#1 -951368605#0 45342811#1 45342811#2 45342811#2.66 -45344273#22 -45344273#22.6 -45344273#22.18 -45344273#22.35 -45344273#21 -45344273#21.28 -45344273#19 -45344273#18 -45344273#18.17 45344321#0 45344321#1 897252876#7 897252876#8 902433295#2 902433295#3 902433295#4 902433295#4.36 902433295#4.49 951381433 951381433.13 951381433.15 951381433.17 951381433.18 951381433.19 951381433.23 951381433.25 951381433.26 951381433.27 951381433.29 951381433.31 897172091#5 897172091#6 -45344326#3 -45344326#2 -45344326#2.15 -951404486#1 -951404486#0 -45344333#1 -45344333#0 45344329#5 -951381435 45344331#3 45344327#1 897172091#12 -950400189 -45344335#5 -45344335#4 -45344335#3 950400190 -897172091#9 699875131#0 699875131#1 -45344335#1 -45344335#0 -45344335#0.49 45344297#2 45344297#2.7 45344297#2.17 45344297#2.22 45344297#2.28 45344297#2.54 45344297#2.118 950399187#0 950399187#1 951141449 951141449.18 951141449.22 951141449.26 950235689#0 950400192#1 699875131#4 700254525#9 700254525#11 700254525#12 700254525#12.12 950235692#0 950235694#3 950235694#4 950235694#4.8 950235694#4.19 950235694#4.29 950235694#4.38 950235694#4.48 950235694#4.103 950235694#4.115 950235694#4.119 950235694#4.123 950235694#4.127 950235694#6 950235694#6.13 950235694#6.18 950235694#6.21 950235694#6.25 -950455048#1 -950455048#1.49 -950455048#1.67 -950455048#1.78 950455051#0 950455051#0.11 950455051#0.26 950455051#0.42 950455051#1 950455051#1.2 -950235703#2 -950235703#2.9 -950235703#0 -950235703#0.13 -950235703#0.32 -950235703#0.55 -950235703#0.71 -950235703#0.86 -950235703#0.97 -950235703#0.108 -950235699#4 -950235699#3 -950732876 950235697#2 950235695#1 950235695#2 -950235694#0 -950235700#0 -45344336#4 -45344336#3 -45344336#2 -45344336#1 -950238193#2 -950238193#1 950553572 -45344284#0 45344280#13 45344280#14 45344280#14.13 45344280#15 45344283#5 45344283#6 45344283#6.72 45344283#6.89 45344283#6.131 45344283#7 45344283#7.36 45344283#8 -950233988#0 45344272#5 45344272#6 45344272#7 45344272#7.21 45344272#7.41 45344272#8 45344272#8.32 897252852#0 897252852#1 897252852#1.30 897252850#0 897252850#1 897252850#1.24 -950389247#2 -950389247#2.20 -950389247#2.28 -950389247#1 -950389247#1.13 -951441775 -951441775.15 -951441775.28 -951441775.39 -951441775.47 -951441775.60 951381432#1 951381432#1.2 951381432#1.5 951381432#1.8 897252850#4 897252858#0 897252858#1 897252858#2 -897252852#6 -897252852#6.26 -897252852#5 -951370962 -951370962.12 -951370962.22 -951370962.34 -951370962.43 -951370962.49 -951370962.56 -45344304#2 -45344304#2.28 -45344304#1 -45344304#1.10 -45344304#1.52 -45344304#0 45344272#10 45344272#10.38 45344272#11 45344272#11.35 45344272#12 45344272#13 45344272#13.4 45344272#13.35 45344298 896892974 971495602#11 971495602#12 971495602#12.26 971495602#12.77 951442813 951442812#0 -896786335#50 -896786335#49 -896786247#9 -896786247#9.8 -896786247#9.17 -896786247#9.75 -896786247#9.157 -896786247#8 -908869236 -908869236.10 -908869236.25 -908869236.28 -908869236.31 -908869236.34 -908869236.36 -908869236.38 -908869236.41 -908869236.82 -908869236.85 -908869236.89 -908869236.92 -908869236.95 -908869236.97 -908869236.100 -896786335#43 -896786335#42 -896786335#42.22 896892977#0 896892977#0.14 896892977#1 896892977#1.45 896892977#1.56 -908869250#4 -908869250#4.38 -908869250#3 -908869238 -908869238.92 -896786335#39 -896786335#39.27 -896786335#37 -896786335#36 -896786335#34 -896786335#33 -951354773#3 -951354773#3.20 -951354773#3.23 -951354773#3.26 -951354773#3.28 -951354773#3.30 -951354773#3.32 -951354773#3.34 -951354773#3.38 -951354773#3.40 -951354773#3.43 -951354773#3.45 -951354771#1 -951354771#0 -896893028#4 -896893028#4.22 -896893028#3 -896893028#3.26 -896893028#1 -896893028#1.14 -896893028#0 -896893028#0.19 -896786297#1 -896786297#1.36 -896786297#1.87 896892983#11 -951998772 -896893027#0 -896893027#0.51 -896893027#0.118 896786297#4 896786297#4.10 896786297#4.18 896786297#4.21 896786297#4.23 -896893005#4 -896893005#3 -896893005#2 -896893005#2.6 877388728#11 -896893014#1 896893015#1 896893015#1.26 896893015#2 896893015#3 896893018#1 896893018#1.2 896893017#1 -896786335#28 -896786335#27 -896786335#27.19 951358823 951358823.10 951358823.15 951358823.20 951358823.26 -951354763#2 951358824#1 896786253 896786253.47 896786253.111 896786263#4 -951358821#2 -951358821#2.84 -951358821#2.87 -951358821#2.89 -951358821#2.91 -951358821#2.98 -951358821#1 -951358821#0 -951358821#0.3 -951358821#0.6 -951358821#0.9 -951358822#0 -951358822#0.4 -951358822#0.8 -951358822#0.13 -951995493#1 951354763#5 -951995492#0 951995491#1 951995491#2 951995494#1 -896786335#24 -896786335#23 -896786335#23.44 -896786335#22 -896786266#13 -896786266#13.19 -896786266#12 909024250#0 909024250#1 -909024243#1 -909024243#1.11 -909024243#1.69 -909024243#1.72 -909024243#1.74 -909024243#1.78 951995495 -896786335#18 -896786335#17 -896786335#17.2 909024245 909024245.31 909024245.51 909024245.75 909024250#5 909024250#6 909024239#0 909024239#1 909024239#1.17 909024239#2 909024239#2.40 -951983585 -951975994 -896786324#1 -896786324#0 -896786324#0.19 -896786324#0.132 -896786324#0.177 951951639#0 951951639#1 951946802 951946795#2 951946795#3 951946795#4 951946795#6 951946795#7 951946795#9 951946795#10 951946795#11 951946795#11.34 951946795#11.40 951946795#11.45 896786337#10 896786337#10.21 -951887700#20 -951887700#19 -951887686#1 -951887688#2 -951887688#1 951887689 951961234#0 951961234#1 -951878265#2 951878263#1 951878263#1.39 951878263#1.46 951878263#1.53 951878263#1.72 951878263#1.75 951878263#2 951878263#2.2 -951878266#4 -951878266#4.37 -951878266#2 -951878266#1 -951878266#1.39 -951878266#1.47"/>
</vehicle>
<vehicle id = "veh5" type= "veh_passenger" depart="3605" >
<route edges =" 951370989 951370989.40 951370989.47 951370989.53 951370989.56 951370989.62 951370989.64 951370989.67 -902433320#1 -902433320#0 902433321#2 -45342799#20 -45342797#4 -45342797#3 -951368601#1 -951368602#1 -951368602#0 -45342835#0 -45342797#0 45342834#2 45342809#3 -45342798#2 -45342798#1 45342840#0 -45342810#2 -671416444#2 -671416444#1 671416442#0 -671416441 671416443#1 671416443#2 -45342838#0 -45342810#0 45342809#5 -45342836#2 -951441769 951370985#1 45342809#7 45342809#8 45342809#9 45342809#10 45342809#10.44 45342825#0 45342825#1 45342825#2 45342828#0 45342828#1 45342828#1.100 -45344273#6 -45344273#6.40 -45344273#6.59 -951384598#3 -951384598#2 -951404491 -951404491.16 -951404491.28 -951404491.40 -951404491.51 -951384599#0 700249213#9 700249213#10 -951404492 700249212#3 45342808#9 45342808#10 951370965#0 951370965#0.26 951370965#0.30 951370965#0.33 951370965#0.37 951370965#0.40 -951417471 -951417471.23 -951417471.42 45342808#12 -897252871 -897252870 -45344310#2 -45378639#12 -45378639#12.97 -951404475 -951404475.33 -951404475.43 -951404476 -951404476.16 -951404476.32 -951404476.50 -951404476.59 -951404476.68 -951404476.84 -951404476.93 -951404476.101 -951404476.106 -951404476.113 971495602#7 971495602#7.32 971495602#7.56 971495602#8 971495602#8.24 971495602#8.86 -313316104#6 -45378650#5 -45378650#5.11 -45378650#4 45378645#0 45378645#0.44 -908846596#3 -908846595#1 908846594#0 908846594#1 908846594#1.37 908846596#1 45378650#1 -908846593 -908846593.73 908560901#8 908560901#8.23 908560901#8.56 -313316104#0 -313316082 -45378649#12 -45378649#11 -45378649#11.22 -45378649#10 -45378649#10.20 -951355292 -951355298#1 -951355298#1.5 -951355298#1.10 -951355297#1 -951355296 951354759#1 951354759#1.10 951354759#3 951354759#4 951354759#4.40 -896786262#4 -896786262#4.31 -896786262#3 -896786262#3.9 -896786262#1 -896786262#0 -896786262#0.33 -896786262#0.115 896786260#3 896786257#1 896786257#2 896786257#2.28 896786257#2.57 896786257#3 896786257#3.14 896786257#4 909024248 909024248.50 909024287#0 909024287#0.8 909024287#0.15 909024287#0.65 -909024286 -909024289#2 -909024288#1 -909024288#0 -896786287#2 -896786292#3 -896786292#2 -896786292#2.20 -896786292#2.58 896786291#0 896786291#0.19 896786291#1 896786291#1.19 -877398366#4 -951995475#3 -951995475#2 -951995475#1 -951995475#1.25 -951995475#0 896786293#2 896786293#2.8 896786293#2.28 896786293#2.36 896786293#2.45 896786293#2.48 896786293#2.52 -45378665#2 -45378665#2.36 -45378665#1 -45378665#0 -45378665#0.39 -45378665#0.75 -896786335#14 -896786335#14.27 -896786335#13 -951983587#9 -951983587#8 -951983588#1 -951983588#0 951983586#1 -896786304#8 -896786304#8.29 -896786304#7 -896786304#7.31 -896786304#6 951983592#0 951983592#0.146 951983592#0.152 951983592#0.157 951983592#1 951983592#3 951983592#3.4 951983592#3.8 951983592#3.24 951983592#3.30 -951988579 951988578#1 -951988576#1 -951988576#0 -896786309#2 -896786309#2.4 -896786309#2.65 -896786309#1 896786305#0 896786305#0.8 896786305#0.17 896786308#2 896786308#2.17 -877388976#0 -877388976#0.15 -877388976#0.50 -896786307#4 -896786307#4.9 -896786307#2 -896786307#2.7 -896892994#1 -896892994#1.10 -896892994#1.34 -896892994#0 -896786310#1 -896786310#1.7 -896786310#1.40 -896786310#1.58 896892995#0 896892997#1 896892998#4 -877388728#9 -877388728#7 -877388728#5 -877388728#5.9 -877388728#5.30 -877388728#4 -877388728#4.18 -951988591#3 -951988591#2 -951988591#2.11 -951988591#2.25 -951988591#2.40 -951988592#0 -951988592#0.36 -951988592#0.38 -951988592#0.41 -951988592#0.44 -951988590#9 -951988590#9.14 -951988590#9.23 -951988590#9.30 -951988590#8 -951988594 -896786309#10 -896786309#10.7 -951988596#1 951988597#0 -951988599 951988598#1 896786309#14 951988595#0 951988595#0.112 951988595#1 951988595#1.6 951988595#1.16 951988595#2 951930617#9 951930617#10 951930617#10.11 951930617#10.22 951930617#11 -951983615 -951983615.63 -951983615.77 896786310#4 896786310#4.16 896786310#6 896786310#6.17 951983592#5 951983610 951983612 951983612.19 951983612.23 951983612.27 951983608#0 951983608#0.28 951983608#0.31 951983608#0.35 951983608#1 951983608#2 951930618#2 -951930617#6 -951930617#5 951930621 951988603#0 -951988605#1 -951988605#0 951988604#4 -951930622 951930618#0 951930618#0.26 951930618#0.29 951930618#0.32 951930618#0.35 -951930619 -877389028#0 -877389028#0.33 896786310#9 896786310#9.40 896786310#9.54 896786310#9.61 -951983616#2 -951983616#1 -951983616#0 -951983616#0.12 -951983616#0.15 -951983616#0.18 -951983587#3 -951983587#3.2 -951983587#2 -951983587#1 -951983591 -896786311#9 951976010#0 -951976011#0 896786321#2 -896786320#3 -896786320#3.5 -896786320#1 -877396172#5 -877396172#3 -877396172#1 -877396172#1.57 -877396172#0 -877396172#0.15 896786313#3 896786313#3.51 896786313#3.88 896786313#3.110 896786313#3.151 896786313#3.164 896786313#3.186 896786313#3.223 896786313#3.237 896786313#3.246 896786313#3.253 -896786312#1 -896786312#1.17 -896786312#1.24 -951930664#0 -951930661#2 -951930661#0 877395784#7 877395784#8 877395784#8.44 877395784#9 877395784#10 877395784#10.31 877395784#10.53 951946825#0 951946825#1 -951946816#4 -951946816#2 -951946816#1 951946810#0 951946810#1 951946810#2 -896786337#14 -896786337#14.40 -896786337#14.111 -952365020 -952365021 -951878231#2 951868619#0 951868620#0 -951868611#1 -951878231#0 951951645 -951951643#3 -951951646 -951951642#2 -951951642#1 -951951642#0 951878263#6 951878263#7 951878263#8 951878230#4 -951891772#4 -951891772#3 -951891772#2 -951891774 951891771#2 951878270#2 951878270#3 951930614 -951878269#7 -951891764#4 -951891764#2 -951891764#1 951891763#0 951891763#1 951891763#2 951878272#4 -951887658 -951887655#0 -904196454#0 700825962#5 700825962#5.39 951891762 -700825961#6 -700825961#6.9 951887666#0 951887666#1 951887666#2 951887664#1 904196454#5 904196454#6 -951887665 -951961236#0 951887700#5 951887663#0 951887663#1 951887663#2 951887663#3 -951887660#0 877401978#1 951878266#0"/>
</vehicle>
<vehicle id = "veh6" type= "veh_passenger" depart="7210" >
<route edges =" -45342801#4 45342799#23 672813677#0 672813677#0.22 672813677#0.51 672813677#1 672813677#1.14 672813677#1.27 672813677#2 672813677#4 672813677#4.8 903341082#1 -951368605#1 -951368605#0 -45342811#0 -45342801#0 -45342798#1 45342840#0 45342810#3 45342810#4 45342810#4.21 45342810#5 -973399407#2 -973399407#1 -973399407#0 44740885#14 44740885#14.4 44740885#14.9 44740885#15 44740885#15.31 -45342830#0 45342810#8 45342810#8.39 45342810#10 45342810#10.5 -44740885#12 -44740885#12.2 -44740885#12.5 -44740885#11 -44740885#11.4 -44740885#11.8 -44740885#10 -45342809#8 -45342809#7 45342839#0 -45342838#2 -45342838#1 -45342838#0 -45342810#0 -45342809#4 45342798#3 45342798#4 45342818#0 -45342817#2 -45342817#1 45342816#0 45342816#1 45342814#3 -45342803#5 -45342803#4 -45342803#3 -45342803#2 -45342803#1 44740957#0 -951417477 45342843#2 45342843#3 -45342804#0 -45342808#1 -45342808#1.101 -45342844 -45342843#0 44740957#2 44740902#14 44740902#14.81 44740902#14.94 -44740942#2 -44740942#2.11 -44740942#1 44740901#1 44740901#2 44740957#6 44740957#7 44740957#8 -44740895#3 -44740895#2 -44740895#2.69 44740972#0 951417475#0 974189220#4 974189220#5 902433296 44740967#0 -44740929#6 -44740929#5 -951438760#1 -672215964 672215965#1 44740922#1 44740922#2 44740922#2.25 44740922#3 -44740927#17 44740923#3 44740953#2 44740953#3 44740953#4 44740951#0 44740951#1 -44740949#0 44739167#15 44739167#15.29 45378683#0 45378683#0.76 45378683#1 45378683#2 -45378653#6 -45378685#3 45378655#4 45378655#5 45378655#6 951358810#1 951358810#1.4 -45378656#0 -45378656#0.43 -45378656#0.46 -45378656#0.48 -45378656#0.49 -45378656#0.51 -45378656#0.58 -45378656#0.60 -45378656#0.62 -45378656#0.64 45378654#1 -45378657#3 -45378657#3.57 -45378657#3.61 -45378657#3.65 -45378657#3.69 -45378657#3.73 -45378657#3.78 -45378657#2 -45378657#1 -44740931#2 -44740931#2.59 -313316091#1 -313316091#1.32 -313316091#0 -313316091#0.27 -313316091#0.72 -313316091#0.80 -971495601#9 -971495601#9.28 -971495601#8 -971495601#7 -971495601#6 -971495601#5 -971495601#3 -971495601#1 -971495601#0 -313316086 -44739144#26 -44739144#24 -44739144#22 -44739144#21 -951346849 -909778546#0 -903953325#2 -903953325#2.18 -909778547#2 -951361609 903953324#1 903953324#1.22 702673217#0 702673217#1 702673217#2 -896786289#2 877398366#19 -909024264#1 -909024263 -909024263.30 909024265#1 909024265#2 909024265#2.13 909024265#3 -44739144#13 -877396860#22 -877396860#21 -904371477 -904371477.66 -904371478#1 -904371478#1.6 904371479#1 904371479#1.2 904371479#1.8 904371479#1.27 904371479#1.58 904371479#3 -877396860#18 -877396860#18.14 -877396860#17 -877396860#17.23 -877396860#16 -877396860#15 -877396860#14 -877396860#14.23 896786290#3 896786290#4 896786290#4.40 896786290#5 896786277#0 896786278#0 896786278#0.39 896786278#1 896786267#2 -877398366#13 671191680#15 671191680#15.58 671191680#16 671191680#16.17 671191680#16.20 671191680#16.22 671191680#16.24 671191680#16.31 -896786269#2 -896786269#1 -896786269#1.15 -909024284 -909024284.22 909024289#6 909024289#6.25 876614861#2 -909024287#3 -909024287#3.20 896786283#3 896786283#3.18 896786283#4 896786283#4.51 896786283#4.92 951358819 951358819.28 951358819.39 951358819.46 951358819.50 951358819.54 909024254 909024254.25 909024254.50 -896786260#4 -896786260#4.11 896786257#1 -896786266#4 -909024255 -909024255.11 -909024255.41 -909024255.68 -45378665#7 -45378665#7.32 -45378665#7.54 -951995477 -951995477.15 -951995477.23 -909024286 909024289#3 909024289#3.24 909024289#4 -896786283#1 -896786283#1.4 -896786283#1.24 -896786283#0 -896786283#0.23 -877396033#2 896786284#0 896786284#0.89 896786284#1 877396860#10 877396860#11 -904286382#1 -904286383#4 -904286383#3 -904286383#3.28 -904286383#2 -896786290#1 -896786290#1.17 -904371470#2 -904371470#1 -904286386#3 -904286386#3.11 -904286386#3.33 904371474#0 904371474#0.21 904371474#1 904371474#2 -904371480 -904371480.19 -904371480.46 -904371480.53 -904371480.60 -904371480.68 -904371480.92 904286388#4 904286388#4.32 -904286389#4 -904286389#4.12 951992350#1 951992350#2 951992350#2.32 951992350#2.34 951992350#2.37 951992350#2.40 -904371481#0 -904371481#0.3 -904371482#0 -904371482#0.24 -904371482#0.73 951973452#0 951973452#1 951973452#2 -951973451#3 -951973453#1 -951973453#0 904286387#2 904286387#2.18 904286387#3 904286387#3.5 904286387#3.12 671191683#4 -904371473#4 -904286388#0 904286386#7 951973455 951973456#1 -951973451#0 -671191683#0 -671191683#0.3 -671191683#0.13 -671191683#0.21 904371486#0 904371486#1 904371487#0 904371487#1 904371487#1.29 904286385#8 904286385#9 904286385#10 904286375#0 904286375#1 904286373#0 -951975997 -671191680#8 -671191680#6 -896786326#1 -896786326#0 -896786328#0 -896786328#0.177 877395784#21 877395784#21.6 877395784#22 877395784#22.56 877395784#23 -952002224#7 -952002224#7.17 -952002224#7.71 -951973426#2 -951973426#1 951951639#4 -951973432#1 -951951638#7 -951951638#5 -951973430#0 -952002224#4 -952002224#4.27 951946798#0 -951951638#3 -951951638#2 -951946794#1 951951639#14 951951639#15 896786337#6 896786337#7 896786337#8 896786337#8.8 -951887683 -951887684 -951887682#6 951887695#5 -951887700#19 -671756019#4 -951961235 -951961234#0 -951887689 -951887688#0 -951887687#0 -951887687#0.5 -951887682#3 951887692 -951887691#0 -951887682#0 -951887700#14 -951961240#3 -951961240#1 -951961245 951891772#0 -951891773 -951891771#0"/>
</vehicle>
<vehicle id = "veh7" type= "veh_passenger" depart="7210" >
<route edges =" 45342801#5 45342801#5.32 902433317#3 902433317#4 951368598#0 -951381446#0 951368595#1 951368595#1.17 951368595#1.34 902433317#8 902433317#8.29 902433317#9 951368594#0 951368594#1 951368594#2 972507120#3 -951366780#1 -951366780#1.2 -951366780#1.41 951366779#0 951366779#1 45342812#1 45342811#2 45342811#2.66 45344273#23 45344273#23.11 45344273#24 -897252873#2 -897252873#1 -897252873#1.42 -897252873#0 -897252873#0.25 897252876#4 897252876#5 897252876#5.34 897252876#6 -45344321#1 -45344321#0 -45344273#17 -45344273#17.20 -45344273#17.31 -951404487 -951404487.23 -951404487.30 -951404487.34 -951404487.41 -951404487.54 -951404487.65 -951404487.81 -951404487.106 -951404487.117 -951404487.125 -951404487.130 -951404487.140 -951404487.150 -951404487.157 897252876#8 -902433295#1 -951370982#1 -951370980 -951370980.12 -951370980.14 -951370980.16 -951370980.17 -951370980.19 -951370980.24 45344293#3 -897252876#10 45344324#0 45344329#3 902433295#3 45344330#0 45344326#0 45344326#0.4 45344326#0.22 -951404486#1 -951404486#0 45344333#2 -45344331#1 -45344331#0 45344326#3 699875133 699875130#1 45344297#0 45344297#0.22 -950400195#2 -950400195#2.10 950400194#0 -950400193#1 -950400193#0 -950400195#0 -700254525#5 951141449 951141449.18 951141449.22 951141449.26 700254525#8 700254525#9 950235690#0 950235690#0.11 950235691#0 950235691#0.22 950235691#1 -45344320#7 -45344320#7.6 -45344320#7.12 -45344320#7.25 -45344320#7.29 -45344320#7.33 -45344320#7.37 -45344320#7.54 -45344335#7 -45344335#5 -903341090 897172091#12 897172091#13 45344320#5 45344320#5.26 950455054 -45344336#8 -45344336#8.20 -45344336#8.27 -45344336#8.33 -45344336#7 -45344336#7.6 -45344336#6 -45344336#6.35 -950235695#3 950235694#1 950235694#2 950235692#1 950235692#2 950235692#3 950235692#4 -45344273#35 -45344273#35.27 45344278#0 45344278#0.58 45344278#0.62 45344278#0.65 45344278#1 45344278#2 45344278#2.33 -950780326#2 -903341095#1 -903341095#0 45344276#0 -950759346#1 -950759346#0 950235722#0 950235722#0.39 950235722#0.44 950806859 950806859.14 950806859.25 -45344277#4 -45344277#3 -45344277#2 -950806855#2 -950806855#2.23 -950806855#2.29 -950806855#2.33 -950806855#2.39 -950806855#2.43 -950806855#2.49 -950235725#1 -950235725#0 -902822418 902822419#8 -902433292#0 -902433292#0.16 -45344276#3 -45344276#2 903373125#0 903373125#1 903373125#1.14 903373125#1.24 903373125#1.33 903373125#1.41 903373125#1.50 950235713#0 950759344 950759344.25 950759344.36 950759344.47 950235714#1 950235714#2 950235713#2 950235713#2.43 950759350#1 950759350#2 950757958#2 -950759349#0 -950759349#0.28 -902433292#5 -902433292#4 -902433292#3 -950235719#4 -950235719#3 -950235718#1 -950235718#1.15 -950235718#1.26 -950235718#1.35 -950235718#0 -950235718#0.4 -950235718#0.11 -950235718#0.19 876614905#1 950235717#0 950235717#0.7 950235717#0.15 -950759342 -950759342.21 -950759342.36 -950759342.46 902822419#5 902822419#5.3 902822419#5.36 950872171#1 950872171#1.7 950872171#1.16 -950806849#0 -950806849#0.8 -950806849#0.17 -950235727#7 -950235727#6 -950235727#5 -950235727#4 -950235727#3 -950806852#2 -950806852#2.18 -950806852#2.27 -950806852#2.38 -950806852#2.43 -950806852#2.48 950235725#5 950235725#7 -897252880#3 -950235727#0 950641816#6 -950872165#4 -950641807#1 -950641807#1.20 -950641807#1.25 -950641807#1.30 -950641807#1.33 -950641807#1.38 -950641807#1.42 -950641807#1.47 -950235729#1 -950235729#0 897252880#5 897252880#6 897252880#6.90 45344271#11 950806850#0 -950806860#1 -950806860#0 -950806860#0.20 -950806860#0.30 -950806860#0.40 -950806860#0.51 -950806860#0.58 -950806860#0.64 -950806860#0.74 -950806860#0.80 -950806860#0.86 950235722#2 -950238184#4 -950238180#1 -950238180#0 -45344278#4 -950238182#3 -950238181#2 -950238181#2.23 -950238181#2.28 -950238181#2.32 -950238181#2.36 -950238181#2.40 -950238181#2.43 -950238181#2.49 -950238181#2.63 -950238181#2.65 -950238181#2.67 -950238181#2.70 -950238182#0 950755158 950755158.30 950755158.35 950755158.39 950755158.45 950238179#1 -950235701 -950235699#1 950235695#0 950235697#3 950235697#4 950235697#4.10 950235697#4.13 950235697#4.16 950235697#4.19 950235697#4.22 45344272#2 45344272#2.46 -45344336#3 -45344336#2 950553578#1 -950238192#5 -950238192#5.24 -950238192#4 45344281#1 950241866#9 45344284#6 45344284#7 45344284#7.45 45344284#7.106 950238188#0 950238188#2 -950241847#7 -950241847#7.19 950553571 950553571.38 950553571.41 950553571.44 950553571.54 950553571.56 950553571.58 950553571.66 950553571.68 950553571.71 -950241847#4 950238186#1 950238186#2 45344271#7 45344271#7.34 -950641813#1 -950641813#1.14 -950641813#1.27 -950641813#1.43 -950641813#1.59 -950641815#1 -950641815#1.35 -950641815#1.42 -950641815#1.47 -950641814 950238188#4 -950641816#12 -950641816#12.38 -950641816#11 -950641816#10 -950641816#9 -950641812#4 950641809#0 -950641810 -950641810.14 -950641810.18 -950641810.22 -950641810.27 950235732#1 950235732#2 950641808 950641808.26 950641808.28 950641808.30 950641808.33 -950641811#0 -950641811#0.3 -950641811#0.9 950235732#4 950235732#5 950235732#5.16 951077734#0 -950241846#1 -950241846#1.22 951043903 950241823#3 45344284#12 45344284#12.58 950872160#0 951077740#0 951077740#1 951077740#2 951077739#1 951077739#1.17 -951141446 -951141446.24 -951141446.29 -951141446.35 -951141446.41 -951141446.45 -951141446.50 -950241823#0 45344285#4 45344285#6 45344285#7 45344285#7.32 45344285#7.36 45344285#7.39 45344285#7.44 45344285#8 45344285#9 45344285#9.26 45344285#10 45344285#10.3 45344285#10.10 45344285#10.14 45344285#10.20 45344285#10.25 950872160#2 950872160#2.4 950872160#3 950872160#4 950872160#4.25 950872160#5 950872160#6 950872160#7 950872160#8 950929122#3 -950929127#11 -950929127#10 -950241837#1 -950241837#1.71 -950241837#1.96 -950241837#1.99 -950241837#1.102 -950241837#1.105 -950241837#1.108 950241836 -950929127#7 -950929127#6 950241832#1 950241821#3 -951014858#0 -951014858#0.81 -950929127#4 -950929127#4.20 950241828#0 950241821#5 -950241831#1 -950241831#0 -950929127#2 950241825#0 -950241818#3 -950241818#2 950929121#0 950929121#0.14 950929121#0.18 950929121#0.21 950929121#0.26 950241819#0 950241819#1 950241819#2 950241819#3 950241819#4 -951043906#0 -951043906#0.33 -951043906#0.37 -951043906#0.41 -950241821#8 -950241821#7 -950241821#7.35 950241825#2 950241825#2.8 -951014859 -951014859.35 -951014859.38 -951014859.40 -951014859.42 -951014859.50 -951014859.53 -951014859.56 -951014859.60 950241831#3 951014861#2 951014861#3 950241825#5 950241825#5.8 -950243393#5 -950243393#5.41 950241823#10 -897252878#9 -897252878#9.96 -897252878#8 -897252878#8.12 -950241202#5 -950241202#3 -950241202#3.7 -950241202#2 -950241202#2.5 -950241202#2.10 -950241202#2.15 -950241202#1 -950241202#1.30 -950241202#0 897252879#4 897252879#4.27 -950397767#1 -950397767#0 -950397769#1 950241205#1 897252879#6 897252879#6.43 897252879#7 897252879#8 897252879#8.3 897252879#8.29 897252879#9 -950396020#3 -950396020#1 -950396020#1.13 -950396020#0 897252878#3 -950396018#3 -950396021#2 -950396021#2.10 -950396021#2.14 -950396021#2.18 -950396021#2.23 -950396021#2.28 -950397771 -950397771.20 -950397771.23 -950397771.26 -950397771.30 -950396018#0 950241208#2 950241208#2.29 -950241207#0 -897252878#5 -897252878#5.5 -950241855#4 950243393#2 950243393#2.16 950243393#2.38 950243393#2.63 950243393#2.109 950243393#3 950243393#3.20 971905923 -951014855#0 45344271#2 45344271#2.26 -950241848#5 -950241848#5.35 950241847#0 -950241859#1 -951043905#1 -951043905#1.58 -951043905#1.61 -951043905#1.65 -951043905#1.69 -951043905#0 -950241861#1 950241857#0 950241863 950241863.49 950241863.52 950241863.55 950241857#2 950241848#1 950241850 -950241851#0 950241857#4 950241857#5 -897252878#1 950396022#0 950396022#1 -950396023 950243391#2 950243391#2.3 950243391#2.6 897252879#11 897252879#11.27 897252879#11.52 -950243392#2 -950243392#1 -950243392#0 897252877#2 897252877#2.29 -45344282#7 -950394096#1 -950394095 950241866#3 950241866#3.97 950241866#3.100 950241866#3.104 950241868#0 950394090#0 -950241869#0 -950241869#0.28 -950241869#0.37 950241866#5 950241865#1 950241865#2 950241869#3 950241869#3.5 950241869#3.10 950241869#3.17 950241869#4 950238192#1 950238192#1.16 -950394094 -950394094.12 -950394094.16 -950394094.20 -950394094.25 -950394094.28 -950394094.30 -950241229#0 -950241233#0 -45344280#9 -45344280#9.5 -45344280#8 -45344280#8.26 -45344280#7 -45344280#6 -45344280#6.17 950390890 950390890.34 950390890.38 950390890.42 950390890.46 950241224#1 950241224#1.3 950241224#1.8 950241224#1.32 950241224#1.51 950241224#1.66 950241224#1.78 950241224#2 950241224#3 700278832#5 700278832#5.53 45344280#12 45344284#0 -950553572 -950238193#0 45344280#14 45344280#14.13 45344280#15 45344283#5 45344283#6 45344283#6.72 45344283#6.89 45344283#6.131 950233989#0 950233989#1 950233989#1.12 950233989#1.21 -700278833#4 -700278833#3 -700278833#2 -700278833#2.24 -700278833#1 950241220#0 950241220#0.109 950241220#0.162 950241220#1 951132943 951132943.10 -950241222#1 -950241222#1.13 -950241222#1.96 950392123#0 950392123#0.21 950392123#0.29 950392123#0.39 950392122 950392122.8 950392122.13 950392122.19 950392122.24 700278832#1 700278832#2 700278832#2.35 700278832#2.45 -950392119 -950392119.13 -950392119.17 -950392119.21 -950392119.29 -950392119.36 -950392119.48 -950392119.56 -950392119.64 -950390889#1 -950390889#1.12 -950390889#1.34 -950390889#0 -950390889#0.4 -950390889#0.19 -950241223#2 -950241223#2.25 -950241223#2.40 -950241223#2.50 -950241223#2.61 -950241223#2.75 -950241223#1 -950241223#1.3 -950241223#1.20 -950241223#1.36 950241222#4 -45344280#3 897252877#0 897252877#0.74 950396025 950241209#4 950241209#4.21 950241209#5 950241209#5.13 -45344280#0 -45344280#0.24 -45344280#0.53 -897172104 -45344275 -45343180#9 -897172106#20 -897172106#20.69 950287956#0 950287956#0.15 950287956#0.28 950287956#0.70 950287956#0.74 950287956#0.77 950287956#0.80 950287956#0.84 950287956#1 950287956#1.27 950287956#1.31 950287956#1.34 950287956#1.38 -897172106#17 -897172106#17.11 950241210 950241210.23 -897615342#0 -897615342#0.8 -897615342#0.25 -897615342#0.39 897615343#2 897615343#2.11 897615343#3 897615343#3.24 -897615337 -897615337.16 -897615337.65 -897615339#6 -897615339#6.10 -950287957#1 -950287958#1 -950287958#1.15 -950287958#1.18 -950287958#1.22 -950287959#2 -950287959#1 -950287959#0 -45343180#5 -45343180#5.49 -897615339#3 950239878 -950287962#0 -45343180#3 -45343180#3.14 -45343180#2 -45343180#2.23 -45343180#2.34 -45343180#2.39 -45343180#1 -45343180#1.6 -45343180#1.29 -45343180#1.60 -950239880#3 -950287962#2 -950287962#2.35 950239879#0 950239879#1 -950287960 -950239880#0 897615339#1 897615339#1.27 950239879#3 950287964#1 -950287963 -950287963.22 -950287963.43 -897615341#1 -897615341#0 -897615341#0.18 45343180#7 45343180#7.20 950241212#0 -950241214#3 -950241214#3.68 -950241214#3.76 -950241214#3.85 -950241214#3.94 -950241214#2 -950241216 -950241216.24 -950241216.47 950241218 950241218.22 671176477#5 950239856#4 950239856#5 950239856#5.17 950239856#5.28 -950282464#1 -950282464#1.8 -950282464#1.13 -950282464#1.19 -950282464#1.24 -950282464#1.43 -950282464#1.48 -950282464#0 -950282464#0.5 -950239862#6 -950239862#6.7 -950239862#6.14 -950239862#6.26 -950282463 -950282463.9 -950282463.17 -950282463.21 -950282463.30 -950282463.39 -950276710#1 -950276710#1.5 -950276710#1.13 -950276710#0 -950276710#0.10 -950276710#0.32 950239862#3 950239862#3.28 -950239863#1 -950239863#0 -950239863#0.36 -671176477#2 -671176477#2.29 -671176477#1 -671176478#0 -671176478#0.38 -671176478#0.42 -671176478#0.45 -671176478#0.50 -671176478#0.54 -897172102 -897172103 -671176472 897252879#17 897252879#18 897252879#18.162 897252879#19 897252879#19.29 897252879#20 897252879#21 897252879#21.85 897252879#22 897252879#23 896892972 896892973 896892973.27 896892973.31 -896786335#50 -896892981#13 -896892981#13.5 -896892981#13.13 -896892981#12 -896892981#10 -896892981#10.8 -896892981#9 -896892981#8 -896892981#8.18 -896892981#8.50 -896892981#8.78 -951358829#1 -951358829#1.27 -951358829#1.80 950260764#0 950260764#0.14 950260764#0.20 950260764#0.27 950260764#0.78 950260764#0.85 950260764#0.90 950260764#0.94 950260764#0.98 950260764#1 950260764#2 950260764#3 -950233986#2 951132945#0 950233985 -896893025#14 -896893025#14.20 -950260765#10 951998783#0 -876614662#0 -951998787#1 -951998787#0 -951998787#0.10 -951998787#0.14 -951998787#0.18 -951998787#0.21 951998783#2 -951998785#1 -951998790 896893023#7 896893025#6 896893025#7 896893025#7.15 896892986#0 951998763 896892985#1 951349909#0 -951998762#0 -896892984#0 -896892984#0.11 -876614662#4 -876614662#4.12 -876614662#4.55 -876614662#4.113 -876614662#3 -876614662#3.38 -876614662#2 896893025#12 951349907#0 -951132945#2 951349908#1 951349909#5 951349909#5.10 951354777 -951350966#2 -951350966#2.8 -951350966#2.10 -951350966#2.12 -951350966#2.14 -951350966#2.16 -951350966#2.19 -951350966#2.59 -951350966#2.61 -951350966#2.63 -951350966#2.64 -951350966#2.66 -951350966#2.78 -951350966#2.82 -951350966#2.87 -951350966#2.94 -951350965 950233986#5 950233986#5.1 950233986#5.5 951350964 -951350966#0 951350967#1 951350967#1.12 951350967#2 896892981#3 896892981#4 896892981#5 951349912#0 951349912#0.14 951349912#0.18 951349912#0.25 951349912#0.33 951349912#0.69 951349912#0.72 951349912#0.74 951349912#0.76 951349912#1 951349912#1.12 951349912#1.14 951349912#1.16 951349912#1.19 -896786335#44 -896786335#44.9 -896786335#44.71 -896786335#43 -896786335#42 -896786335#42.22 896892983#0 896892983#0.10 896892983#1 896892983#1.19 -951421976 896892982#2 -896786335#39 -896786335#39.27 -896786335#37 -896786335#36 -896786335#34 -908869252#3 -908869252#3.7 -908869252#3.13 -908869252#3.35 -908869252#3.57 -908869252#3.88 -908869252#3.90 -908869252#3.94 -908869252#1 -908869252#0 -908869252#0.17 -896786335#30 45378649#0 45378649#0.36 45378649#1 951354763#0 951354763#1 951358824#1 -896786265#5 -896786265#4 -896786265#4.59 -896786265#2 -896786265#0 909024253#0 951995490#0 951995490#1 951995490#1.10 951995490#1.14 951995490#1.17 951995490#1.20 -909024250#1 909024249 909024249.20 909024249.72 -896893011#1 -896893011#0 -896893011#0.52 896893013#3 896893013#3.9 896893005#0 896893005#0.7 896893005#0.25 896893005#0.69 -896786307#9 -896786307#9.12 -896786307#9.63 -896786307#9.67 -896786307#9.69 -896786307#7 -896786307#7.13 -896786307#6 -896786307#6.13 -896786307#6.32 -896786307#4 -896786307#4.9 896892992 896892992.16 -896892998#0 -896892998#0.14 896892994#1 896892994#1.12 896892994#1.37 -896786307#1 951995496 951995496.11 951995496.15 951995496.18 951995496.22 951995496.29 -896786309#4 -896786309#4.39 -896786309#4.81 951988576#0 951988574#1 951988574#1.57 951988574#1.71 951988575#1 -896786309#1 -896786309#0 896786304#2 896786300#0 896786300#0.23 896893013#0 896893013#0.10 896893013#0.59 -896893009 -896893009.79 -896893012#4 -896893012#3 -896893012#2 -896893012#2.9 896786300#3 896786300#3.17 45378665#0 45378665#0.11 45378665#0.47 909024239#0 909024239#1 909024239#1.17 909024239#2 909024239#2.40 877398366#3 877398366#4 -904371457 904371458#0 904371458#0.18 904371458#1 -877396860#4 -896786328#3 -896786328#3.70 904371467#0 904371464 896786325#1 896786325#2 -896786324#1 -896786324#0 -896786324#0.19 -896786324#0.132 -896786324#0.177 951951639#0 951951639#1 951946802 951946795#2 951946795#3 951946795#4 -951946799 951951639#9 951951639#10 951946797 951946795#9 951946795#10 951946795#11 951946795#11.34 951946795#11.40 951946795#11.45 896786337#10 896786337#10.21 -951887700#20 671756019#0 -951961251#1 -951961251#0 876509484#8 876509484#8.5 951961233#0 951961233#0.22 951961233#0.27 951961233#0.32 951961233#0.37 951961233#1 -951878265#2 -951878265#1 -951878265#0 951878264#2 -951878263#3 -951878266#4 -951878266#4.37 -951878266#2 -951878266#1 -951878266#1.39 -951878266#1.47"/>
</vehicle>
<vehicle id = "veh8" type= "veh_passenger" depart="7210" >
<route edges =" 951370989 951370989.40 951370989.47 951370989.53 951370989.56 951370989.62 951370989.64 951370989.67 -902433320#1 -902433320#0 902433321#2 45342799#21 45342809#0 951368600#0 -951368603#1 951368601#0 -951368602#1 951370983 -45342797#1 -45342797#0 -45342834#1 -45342834#0 44740902#8 44740902#9 44740902#9.47 -951370984#2 45342813#2 45342814#2 -45342816#1 -951370984#0 -45342803#6 45342814#4 45342814#5 45342809#8 45342809#9 -45342821#1 -45342821#1.44 -45342822#2 -45342822#1 -45342822#0 -45342831#2 951421967 951417480#1 -951417482#1 -951417481 45342805#3 45342805#4 45342809#14 45342824#0 45342824#1 45342824#2 951366786 45342833#4 45342823#1 45342823#2 45342828#1 45342828#1.100 -951384596#1 -951384596#1.24 -951384596#1.31 -951384596#1.36 -951384596#1.46 -951384596#1.54 -951384596#1.60 -951384596#1.72 -951384596#1.107 -951417467 -951417467.14 -951417467.15 -951417467.17 -951417467.18 -951417467.21 -951417467.23 -951417467.24 -951417467.25 -951404491 -951404491.16 -951404491.28 -951404491.40 -951404491.51 -951384599#0 -700249213#7 -700249213#7.47 -700249213#7.56 -700249213#7.59 -700249213#7.61 -700249213#7.65 -700249213#6 -897252869#3 -897252869#2 897252861 -897252860#0 -897252868#2 -897252868#1 -897252868#1.11 -897252868#1.30 -700249213#3 -45344287#3 -45344287#3.35 -45344287#3.82 897252863#8 897252863#9 897252863#9.10 897252862#1 897252862#1.24 897252862#2 897252862#2.16 897252864#0 951384594 951384594.8 951384594.12 951384594.15 951384594.18 951384594.22 45344314#2 45344314#3 -45344315#2 -45344315#1 -45344315#1.25 -45344315#0 -45344315#0.31 700249213#11 45342808#10 45342808#11 45342808#11.24 45342808#12 -897252871 -897252870 -45344310#2 -45344310#1 -45344310#0 -45344310#0.10 -45344310#0.18 -45344310#0.30 -45344310#0.41 -45344310#0.52 971495602#8 971495602#8.24 971495602#8.86 -313316104#6 -45378650#5 -45378650#5.11 45378646#0 45378646#0.20 45378646#1 45378646#2 45378646#2.42 45378646#3 45378646#4 45378646#4.84 45378646#4.109 908560901#3 908560901#4 908560901#4.8 951435501 951435501.56 -45378647#0 -45378647#0.12 -45378647#0.51 908560901#6 908560901#6.50 908560901#6.91 908560901#6.131 908846596#0 908846596#0.25 -908846594#1 -908846594#1.54 45378650#0 45378650#0.11 908846596#2 908846595#2 908846595#2.72 -45378650#2 -45378650#2.42 -45378650#2.62 -908846593 -908846593.73 908560901#8 908560901#8.23 908560901#8.56 -313316104#0 -313316082 -45378649#12 896786296#0 896786296#1 896786296#1.36 896786296#2 896786296#2.35 -896786254#1 -896786254#1.26 951355294#1 951355294#1.19 951355294#1.22 951355294#1.23 951355294#1.24 951355294#1.25 951355294#1.27 951355294#1.28 951355294#1.31 951355294#1.41 951355294#1.42 951355294#1.43 951355294#1.44 951355294#1.45 951355294#1.47 896786258#4 -896786261 -896786264 -896786264.69 -896786264.122 -896786265#7 -896786265#7.11 951354764#0 951354764#0.86 951354764#0.98 951354764#0.109 951354764#0.120 951354764#1 -896786262#0 -896786262#0.33 -896786262#0.115 -896786260#1 -896786260#1.5 -896786260#0 -896786260#0.52 896786257#4 909024248 909024248.50 -45378665#3 -45378665#3.29 -45378665#3.50 896786293#3 896786293#3.29 896786293#4 896786293#5 896786293#5.12 909024251 909024251.27 909024250#4 909024250#5 909024250#6 -45378665#0 -45378665#0.39 -45378665#0.75 -896786300#3 -896786300#3.27 -896893012#1 -896893012#0 -896893012#0.11 -896786303#4 -896786303#4.22 -896786303#3 -896786303#2 -896786303#2.23 951983587#9 -896786335#12 -896786335#12.15 -896786335#11 -896786335#10 -896786335#10.38 -896786335#9 -896786335#8 -896786335#8.39 -896786335#7 -896786335#6 896786319#0 896786319#0.19 -896786318 -896786318.47 -896786319#2 951976008 -951976006#0 -951976005 -896786317#0 -896786316#2 -896786316#1 -896786316#1.33 -896786314 -951930663#1 951930662#2 -951976000#2 -951976000#2.3 -951976000#2.6 -951976000#2.8 -951976000#2.12 -951976000#1 -951975999 951946833#0 -951946816#11 951946817#1 951946817#2 951946817#3 -951946818#3 -951946818#3.18 -951946818#3.21 -951946819#1 -951946819#0 951946816#6 951946816#6.93 951946816#6.96 951946816#6.99 951946816#6.103 951946816#7 951946824 -877395784#12 -877395784#11 -877395784#11.58 951946825#0 951946825#1 -951946816#4 951946844 877399011#1 951946810#2 -896786337#14 -896786337#14.40 -896786337#14.111 -952365020 -952365021 -951878231#2 -951878231#1 -951878231#1.26 -951878231#0 951951645 -951951643#3 -951951643#2 876509484#2 -951951642#1 -951951648#1 951951649 951878263#7 951878263#8 951878230#4 -951891772#4 -951891772#3 -951891772#2 -951891774 951891771#2 -951878270#0 -951878270#0.10 -951878270#0.13 -951878270#0.16 -951878270#0.20 -951878269#10 -951878269#9 -951878269#7 -951878269#6 951891765#0 951891765#1 -951887654#2 -951878272#1 -951878272#0 -951878269#2 -951878269#1 -951878269#1.25 -951878269#1.51 -951878269#1.75 -951878269#1.92 -951887655#4 -951887655#3 -951887655#2 -951887655#1 -951887655#0 -904196454#0 -700825961#7 -700825961#7.10 -700825961#7.37 951887664#0 951887664#1 -904196454#4 951887659#0 951887659#1 -951891763#1 951891765#3 -951887660#3 -951887660#2 -951887660#0 877401978#1 951878266#0"/>
</vehicle>
<vehicle id = "veh9" type= "veh_passenger" depart="10815" >
<route edges =" 951370989 951370989.40 951370989.47 951370989.53 951370989.56 951370989.62 951370989.64 951370989.67 -902433320#1 -902433320#0 902433321#2 -45342799#20 -45342797#4 -45342797#3 -45342797#2 -45342797#1 -45342797#0 -45342834#1 -45342834#0 44740902#8 -45342798#6 45342813#0 45342813#1 951370984#2 44740902#10 44740902#10.9 44740902#11 44740902#12 -671399056 671399058#2 -44740901#3 -44740957#5 -671399051#1 -671399051#0 -44740942#1 -44740942#0 974189220#5 902433296 44740967#0 44740967#1 44740967#2 -44740930#16 -44740930#15 -44740930#14 44740960#0 44740960#1 44740929#9 44740929#9.20 -951421954 -951421954.20 -44740930#12 -44740930#11 -44740930#10 -44740930#9 44740925#0 44740989#0 44740989#1 -44740922#6 44740926#0 44740926#1 44740926#2 44740926#3 44740926#4 44740925#2 44740925#3 -44740927#14 -44740927#13 -44740928#2 -951358805#1 -951358802 -44740927#11 951358806#0 951358806#1 44740926#8 44739163#17 -44740927#9 -44740927#8 -951366798 -951366798.30 -951366798.39 -951366798.48 -951366798.59 -951366798.70 -951366798.78 -951366798.83 -951366798.89 951358797#3 -951358800#0 -44740918#1 -44740918#0 44740920#6 -951358792 -951358792.26 -951358792.42 -951358792.53 -951358792.66 896892969#18 45340579#18 45340579#18.164 45340579#19 45340579#19.12 45340579#19.84 909019791#0 909019791#1 909019791#2 -44740916#4 -44740916#4.29 -909019776#1 -909019776#1.34 909019774 909019774.53 909019774.58 909019774.63 44740910#3 44740910#4 44740933#3 44740933#3.108 44740933#3.192 -44740932#6 -44740932#5 -44740932#4 -44740932#3 44740916#8 44740916#9 44740916#9.64 -909019783 -909019783.98 -45378660#1 -45378660#1.21 -45378660#1.52 -45378660#1.88 -45378660#1.126 -908560900#3 -908560900#2 -908560900#1 -908560901#21 -908560901#21.18 -908560901#21.74 -908560901#20 -908560901#20.10 -908560901#20.61 -908560901#20.115 -908560901#19 -908560901#19.77 -908560901#19.104 -896786299#0 -896786298 -45378665#19 -45378665#18 -951346845 -951346845.45 -951346845.46 -951346845.48 -951346845.49 -951346845.51 -951346845.52 -951346845.76 -951346845.78 -951346845.80 -951346845.82 -951346845.84 -951346845.103 -951346845.133 -951346845.138 -951346845.141 -951346845.144 -951346845.148 951347813#0 951347813#0.59 -951433464 951347814#1 951347814#1.5 951347814#1.9 896786295#4 896786295#5 -896786282#4 -896786282#4.21 -896786282#4.92 -896786282#3 -896786282#3.19 -896786282#3.45 896786273#0 896786280#0 896786280#0.19 896786280#0.47 896786280#1 896786280#2 896786280#3 909024260 909024260.21 909024260.64 909024260.121 -951346848#0 -951346848#0.9 -951346848#0.18 -951346848#0.28 -951346848#0.36 -909024276#1 -909024276#0 -909024276#0.55 896786296#18 896786296#18.4 896786296#18.17 -44739144#24 -44739144#22 -896786294#12 -896786294#12.19 -896786294#12.25 -896786294#12.30 -896786294#12.36 -896786294#12.41 -896786294#11 -896786294#11.13 -896786294#10 -909024270 -909024270.74 -909024270.101 -909024277#0 909024279#4 909024279#4.20 -909024280#1 -909024280#1.18 909024278#1 909024278#1.42 -896786294#6 -896786294#5 -896786294#5.6 -896786294#5.10 -896786294#5.13 -896786294#5.16 -896786294#5.19 -896786294#5.22 -896786294#4 -896786294#3 -896786294#3.26 951992347 -896786277#2 -896786277#0 877398366#16 904286386#0 -909024293#1 -909024293#1.14 -909024293#1.28 -909024293#0 909024294#1 877398366#18 -896786289#1 -896786289#1.72 -896786289#0 -896786289#0.7 877396860#20 877396860#20.72 877396860#21 877396860#22 -44740913#5 903953323#0 903953323#1 909778559#0 909778559#1 -44739144#10 -44739144#9 -904286388#7 -904286388#7.24 -904286388#6 -904286388#6.28 904371479#0 904371479#0.10 904371479#0.23 904371479#0.35 904371479#1 904371479#1.2 904371479#1.8 904371479#1.27 904371479#1.58 -904371474#3 -904371474#2 -904371472#1 -904371472#1.50 -904371472#0 -904286388#1 -904286388#1.25 -904286388#0 -904286386#6 -904286385#15 -904286385#15.42 -904286385#13 -904286385#13.24 -951992356 -951992356.18 -951992356.27 -951992356.36 -904371488#0 -904371488#0.22 -904286385#9 -951992348 904371486#1 904371486#2 904371486#4 904371486#4.3 -951973462#3 -951973462#3.3 -951973462#3.5 -951973462#3.8 -951973462#3.10 -951973462#3.15 -951973462#3.18 -951973462#3.21 -951973462#3.25 -951973462#3.31 -951973462#3.34 -951973462#3.38 -951973462#3.47 -951973462#3.53 -951973462#3.58 -951973462#3.69 -951973462#3.74 -951973462#3.79 671191682#2 904371493#3 904371493#4 904371493#5 951973474#0 951973474#1 -951973473#0 951973472#1 904371492#3 904371492#4 904371492#5 -904371456#3 -904371456#2 -904371456#2.22 -951973471#1 -951973471#0 -671191680#1 -671191680#1.13 -671191680#0 -671191680#0.38 -671191680#0.44 -671191680#0.48 -671191680#0.53 -671191680#0.58 -671191680#0.63 -671191680#0.76 -896786327#0 -877395784#21 -877395784#21.14 -951951638#10 -951951638#10.18 951973434#1 951951639#3 951973426#1 951973426#2 -952002224#6 -952002224#5 -952002224#5.5 951973430#0 -951951638#4 -951951638#3 -951951638#2 -951951638#1 -952000397 -951951639#14 -951946794#0 951946792#1 896786337#8 896786337#8.8 896786337#10 896786337#10.21 -951887700#20 -951887700#19 -951887700#18 -951887700#17 -951887700#17.17 -951887700#16 -951961233#4 951961244 951961244.37 951961244.40 951961244.43 951961244.47 -951961242#1 -951961242#0 -951961240#1 -951961245 951891772#0 -951891773 -951891771#0"/>
</vehicle>
<vehicle id = "veh10" type= "veh_passenger" depart="10815" >
<route edges =" 45342801#5 45342801#5.32 902433317#3 902433317#4 951368598#0 951368598#1 -45344271#32 951368595#0 951368595#1 951368595#1.17 951368595#1.34 902433317#8 902433317#8.29 951368593#1 972507120#2 972507120#3 -951369746#4 -951369746#4.24 -951369746#4.27 -951369746#4.29 951369745#0 -951381440 -951369738 -951369738.5 -951369738.18 -951369738.24 -951369738.31 -951369741#2 -951369741#2.8 -951369741#2.11 -951369741#2.13 -951369741#2.16 -951369741#2.19 -951369741#2.22 -951369741#1 -951369741#1.20 -951369741#1.25 -951369741#1.30 -45344273#26 897252876#0 897252876#0.16 897252876#0.57 897252874 -897252875#2 -897252875#2.29 -897252875#0 -897252875#0.4 -897252875#0.15 -897252875#0.35 -45344336#9 -45344336#9.10 -45344336#9.61 -45344336#9.126 -45344336#9.147 -950455054 45344320#6 45344320#6.8 -45344335#7 950400189 -897172091#12 -897172091#10 -897172091#9 -897172091#8 -897172091#6 -951404496 -951404496.25 -951404496.29 -951404496.31 -951404496.34 -951404496.36 -897252883#0 -897252883#0.7 -897172091#1 -897172091#0 -45344294#6 -45344294#6.9 -45344294#6.25 -45344294#5 -45344294#5.7 -45344294#4 -45344294#4.7 -45344294#4.18 -45344294#3 -45344295#2 -45344295#2.38 -45344295#2.87 -45344295#1 -45344295#1.36 -45344295#1.64 -45344295#1.77 -45344295#0 45344292#3 45344290#2 -951370976#1 -951370976#0 -951370976#0.11 -951370976#0.13 -951370976#0.16 -951370976#0.19 -951370976#0.21 -951370976#0.23 897252863#3 -951370963 -951370971#1 951370964 -45344304#8 -45344304#8.11 -45344304#7 -45344304#6 -45344304#6.5 -45344304#6.31 -45344304#6.62 -45344304#5 -45344286#12 -45344286#11 -45344286#9 -45344286#9.15 -45344286#9.41 -45344286#9.67 -45344286#8 -45344286#7 -702632122#4 -702632122#4.41 -702632122#4.57 -702632122#4.62 -702632122#4.67 -702632122#4.71 -702632122#4.73 -702632122#4.77 -702632123#3 -702632123#2 -702632123#1 -702632123#1.4 -951404495 -951384610#0 -45344272#11 -45344272#11.24 -45344272#10 -45344272#10.10 -45344272#9 -45344272#9.56 -45344272#8 -45344272#8.25 -45344272#7 -45344272#7.23 -45344272#7.44 -45344272#6 -45344272#5 -45344272#4 -45344272#3 -45344272#3.16 -45344272#3.30 -45344272#3.79 -45344336#3 -45344336#2 -45344336#1 -45344336#0 45344284#3 -950238192#4 45344281#1 45344281#2 45344282#5 45344282#5.41 45344282#5.76 950241848#0 950241857#3 950241857#3.27 950241857#3.51 950241857#4 950241857#5 -897252878#1 -897252878#0 -897252877#2 -897252877#2.49 -897252877#1 -897252877#0 -897252877#0.24 45344280#3 45344280#4 950241866#0 950241866#1 950241866#1.32 -950394091#1 -950394091#0 -950394091#0.13 -950394091#0.19 -950394091#0.26 950241869#2 950241869#2.5 -950241865#2 -950394090#1 -950394090#0 -950241868#0 950241866#4 950241866#5 950241866#6 950241866#6.19 950241866#6.38 -950394092 -950394093#0 -950241233#2 -950241233#1 -950241233#0 950241225#0 950241225#0.21 950241225#0.51 950241225#1 -950390893#0 700278832#4 700278832#4.33 700278832#5 700278832#5.53 45344280#12 45344284#0 -950553572 -950238193#0 45344280#14 45344280#14.13 45344280#15 45344283#5 -950553582#2 -950553582#2.27 950553580#0 950553579 950553579.70 950553579.75 950553579.82 -700278833#5 -700278833#5.31 -700278833#5.45 950318421#0 950318421#0.10 950318421#0.18 950318421#0.29 950318421#0.39 950318421#1 -950233988#1 -950233988#1.32 45344283#9 45344283#10 45344283#10.15 45344283#10.46 45344283#10.69 45344283#10.88 45344283#10.150 45344283#10.196 45344283#10.260 45344283#10.377 45344283#10.468 45344283#10.514 670655885 670655885.12 896892975 971495602#12 971495602#12.26 971495602#12.77 951442813 951442812#0 -896786335#50 -896892981#13 -896892981#13.5 -896892981#13.13 -951349911#1 -951349910#1 -951349910#1.29 951354767 -896892981#10 -896892981#10.8 -896892981#9 -896892981#8 -896892981#8.18 -896892981#8.50 -896892981#8.78 896892979 896892979.23 896892979.41 951349912#1 951349912#1.12 951349912#1.14 951349912#1.16 951349912#1.19 -896786335#44 -896786335#44.9 -896786335#44.71 -896786335#43 -896786335#42 -896786335#42.22 -896786335#41 -896786335#40 -896786335#39 -896786335#39.27 -896786335#37 -896786335#36 -896786335#34 -896786335#33 -896786335#32 -896786335#32.17 -896786335#31 -896786335#31.22 -896786335#30 45378649#0 45378649#0.36 45378649#1 951354763#0 951354763#1 951354763#2 951354763#3 951995494#0 951995494#1 -896786335#24 -896786335#23 -896786335#23.44 -896786335#22 -896786335#21 -896786335#21.41 -896893011#1 -896893012#6 -896893012#6.12 -896893012#5 -896893012#5.11 -896893012#4 -896893012#3 896893006 -896893008#0 896786300#2 896786300#2.40 896786300#2.70 -896893012#1 -896893012#0 -896893012#0.11 896786303#5 896786303#5.27 896786303#5.100 896786303#5.124 -896786301 -896786301.70 -896786303#3 896786302#0 896786302#0.18 896786302#0.77 896786302#1 896786304#6 951983587#7 -951983588#1 -951983588#0 -951983586#0 -896786303#0 -896786311#12 -896786311#12.40 -896786311#11 -896786311#11.60 -896786311#10 -896786311#9 951976010#0 951976010#1 -896786322 -896786322.14 -896786322.21 -896786323#1 896786325#4 896786325#4.12 896786335#6 896786335#7 -951976009#1 -951976009#0 951930673#0 951930673#1 951930674 951930674.32 951930674.37 951930674.40 951930674.44 951930673#5 -896786311#6 -896786311#6.24 951983602 -951930672#0 -951930671#2 -951930671#2.8 -951930671#1 -951930671#0 -951930671#0.25 -951930671#0.32 -951930671#0.42 -877396172#3 896786315#0 896786315#2 -951976005 896786317#1 896786317#1.17 896786317#2 896786317#2.28 896786317#3 896786317#3.44 -896786335#3 -896786335#3.10 -896786335#2 951976001#0 -951976002 -951976000#1 -951975999 951946833#0 951946816#12 951946816#13 951946816#13.22 951946816#13.26 951946816#14 951946795#0 951946795#0.4 951946795#0.7 951946795#0.9 951946795#1 951946795#2 951946795#3 951946795#4 -951946799 951951639#9 951951639#10 951951639#11 951946796#0 951946796#1 951946795#10 951946795#11 951946795#11.34 951946795#11.40 951946795#11.45 -951887683 -951887684 -951887682#6 951887695#5 671756019#0 -951961251#1 951961247#0 951961248#0 951961248#1 -876509484#6 -876509484#6.3 -876509484#6.8 -876509484#6.12 -876509484#6.15 -876509484#5 -951878267#1 -951878267#0 -951878267#0.26 -951878267#0.29 -951878267#0.32 -951878267#0.34 951878264#2 951878263#4 -951878269#15 -951891772#2 -951891772#1 -951891772#0 -951878266#2 -951878266#1 -951878266#1.39 -951878266#1.47"/>
</vehicle>
<vehicle id = "veh11" type= "veh_passenger" depart="10815" >
<route edges =" -45342801#4 45342799#23 45342799#25 45342799#25.7 45342799#25.22 951368597 902433317#7 -951368596 45342799#27 45342799#27.15 45342799#27.20 45342799#27.25 45342799#27.36 -951370987 -951370987.52 -951370987.54 -951370987.56 -951370987.57 -951370987.59 -951370987.62 -903341083#2 -903341083#1 -951368605#2 -951368605#1 -951368605#0 45342811#1 45342811#2 45342811#2.66 45344273#23 45344273#23.11 -951379890#1 -951379890#1.37 -951379890#1.47 -951379890#0 -951379890#0.11 -951379890#0.26 -951379890#0.32 -951379890#0.35 -951379890#0.37 -951379890#0.41 -951379890#0.82 -951379890#0.84 -951379890#0.86 -951379890#0.88 -951379890#0.89 -951379890#0.91 -951379890#0.93 45344320#1 897252876#5 897252876#5.34 897252876#6 -45344321#1 951404485 -45344322#0 45344273#19 -951441770 -45342810#4 -45342810#4.98 -45342810#3 -45342810#2 -671416444#2 671416443#0 671416441 671416442#1 671416440 671416443#2 45342838#1 45342838#2 -45342839#0 -951370985#1 -951370985#0 45342818#3 45342814#5 45342809#8 44740885#10 44740885#11 44740885#11.48 44740885#11.52 44740885#12 44740885#12.36 44740885#12.39 -45342810#10 -45342810#10.21 -45342810#8 -45342810#8.5 -45342810#7 -45342810#7.44 44740885#17 -45344273#14 -45344273#14.32 -45344273#13 45342827#0 45342827#0.77 45342827#0.86 45342827#0.92 45342827#0.101 45342827#1 -45342826#0 45342825#1 -45342824#4 45342823#2 -45342828#0 45342825#3 45342825#3.55 45342825#3.65 45342825#3.72 45342825#3.81 45342825#3.88 -45344273#11 -45344273#10 -45344273#10.42 -45344273#9 -45344273#8 -45344273#8.10 -45344273#7 -45344273#7.22 -45344273#6 -45344273#6.40 -45344273#6.59 -951384598#3 -951384597 -951384597.29 -951384597.36 -951384597.43 -45344273#3 -45344273#3.6 -45344273#3.14 -45344273#3.31 -45344273#3.48 -45344273#2 -45344273#2.6 -45344273#2.24 -45344273#1 -45344273#1.7 -45344273#0 -897252881 -45378637#10 -45378637#9 -951404484#10 -951404484#9 -951404484#9.20 -951404484#8 -951404484#6 -951404484#5 951404481 45378639#10 45378639#11 45378639#12 45378639#12.8 -45344310#1 -45344310#0 -45344310#0.10 -45344310#0.18 -45344310#0.30 -45344310#0.41 -45344310#0.52 971495602#8 971495602#8.24 971495602#8.86 -313316104#6 -313316104#5 -313316104#5.12 -313316104#5.27 -313316104#5.46 -951435500 -951435500.28 -951435500.32 -951435500.35 -951435500.37 -951435500.40 -951435500.48 -951435500.51 -951435500.54 -951435500.57 -951435500.60 -951435500.63 -951435500.67 -951435500.70 -951435500.74 -951435500.78 -951435500.92 -951435500.96 -951435500.100 -951435500.103 -951435500.108 -951435500.117 -951435500.121 -951435500.125 -951435500.137 -951435500.141 -951435500.145 -951435500.148 -313316104#3 -951347804#2 -951347804#2.16 -951347804#2.19 -951347804#2.23 -951347804#2.26 -951347804#2.30 -951347804#2.33 -951347804#2.35 -951347804#0 -951347804#0.1 -951347804#0.6 -951347804#0.20 -951347804#0.28 -951347804#0.33 -951347804#0.39 45378651#1 45378651#2 45378651#2.13 45378652#0 45378652#0.26 908560884#0 951347808#0 951347808#1 45378651#5 45378651#5.47 908560882#0 908560882#1 908560881#0 908560881#0.35 908560881#0.70 908560881#0.73 908560881#0.74 908560881#0.76 908560881#0.78 908560881#0.81 908560881#1 908560881#1.17 951347806#0 951347806#0.30 951347806#0.32 951347806#0.34 -951436327 -951436327.3 -951436327.5 -951436327.7 -951436327.22 -951436327.25 -951436327.29 -951436327.34 -951436327.38 -951436327.40 -951436327.51 -951436327.55 -951436327.60 -908560886#1 -908560886#1.3 -908560886#1.6 -908560886#1.11 -908560886#1.25 -908560886#1.40 -908560886#0 -908560886#0.7 -908560888#2 -908560888#2.7 -908560888#2.15 -908560888#2.23 -908560888#2.29 -908560888#2.38 -908560888#2.44 -908560888#2.50 -908560888#0 -908560888#0.34 -908560888#0.66 -45378643#6 -45378643#6.10 -45378643#5 -45378643#5.11 -45378643#4 -45378643#4.5 -45378643#4.18 -45378643#2 -908560871 -908560871.24 -908560871.54 -45378651#13 -45378651#13.14 -45378651#13.26 -45378651#11 -45378651#10 -908560874#2 -908560874#2.42 -908560874#2.61 -908560874#2.69 -908560874#2.78 -908560874#2.102 -908560874#2.112 908560873#0 908560873#0.27 908560873#1 -908560864 -908560864.31 -908560866#0 -908560866#0.1 -908560866#0.7 -908560866#0.13 -908560866#0.32 -908560874#0 -908560874#0.14 -908560901#17 -908560901#17.7 -908560878 -908560878.43 -908560878.66 -908560878.111 -908560878.142 -908560878.146 -908560878.150 -908560878.154 -908560878.161 -908560878.186 -45378651#8 -45378651#8.10 -908560876 -908560877#0 -908560877#0.10 -908560877#0.27 -908560877#0.90 -908560877#0.115 -908560877#0.140 -908560901#15 -908560901#14 -908560901#14.9 -908560901#13 -908560901#13.39 -908560901#12 -908560901#10 -908560901#9 -908560901#9.4 -908560901#9.59 -313316104#0 -313316082 -45378649#12 -45378649#11 -45378649#11.22 -45378649#10 -45378649#10.20 -45378649#9 -45378649#9.7 -45378649#7 -45378649#7.4 -45378649#5 -45378649#5.24 -45378649#5.57 -45378649#5.68 -45378649#3 -45378649#3.8 -896786265#8 -896786265#7 -896786265#7.11 -896786265#6 -896786265#6.26 -896786265#5 -951358820 -951358820.17 -951358820.20 -951358820.22 -951358820.25 -951358820.28 -951358820.45 -951358820.48 -951358820.50 -951358820.53 -951358821#1 -951358821#0 -951358821#0.3 -951358821#0.6 -951358821#0.9 -951358822#0 -951358822#0.4 -951358822#0.8 -951358822#0.13 -896786265#2 -951995492#1 -951995492#0 -951995491#0 -896786266#12 909024250#0 909024250#1 909024250#2 909024250#4 -909024245 -909024245.13 -909024245.37 -909024245.57 -896786335#16 -896786335#16.7 -896786335#15 -896786335#14 -896786335#14.27 909024236#1 909024236#1.12 909024236#1.82 909024239#1 909024239#1.17 909024239#2 909024239#2.40 -951983585 -951975994 -896786324#1 -896786324#0 -896786324#0.19 -896786324#0.132 -896786324#0.177 -877395784#19 -951946816#15 -951946816#14 -951946816#13 -951946816#13.3 -951946816#13.8 -951946816#12 -951946816#11 -951946816#10 -951946816#9 -951946816#7 -951946820#1 -951946821#2 -951946821#1 -951946821#0 -951946821#0.2 -951946821#0.6 -951946821#0.9 -951946818#2 -951946818#0 951946833#9 951946833#9.22 951946833#11 951946833#11.92 951946833#11.95 951946833#11.98 951946833#11.101 -951946806#0 -952365020 -952365021 -951878231#2 -951951643#6 951951644#0 -951951642#4 -951951642#3 -951951642#3.15 -951951642#3.18 -951951642#3.20 -951951642#3.23 -951951642#3.36 -951951642#3.39 -951951642#3.41 -951951642#3.43 -951951642#2 -951951642#1 -951951648#1 -951951648#0 -951951643#0 951878263#8 951878230#4 -951891772#4 -951961237 -951891766#2 -951891766#2.2 -951891766#2.6 -951891766#2.10 -951891766#2.15 -951891767 -951878269#7 -951878269#6 -951878269#5 -951878269#4 951878272#0 951878272#1 -951887654#1 -951887654#0 700825962#4 700825962#4.25 700825962#4.106 700825962#4.130 700825962#5 700825962#5.39 700825962#6 700825962#7 700825962#7.15 700825962#7.28 700825962#8 700825962#8.3 951887700#0 951887700#1 951887700#2 -951887702#0 -951887666#1 -951887666#0 700825961#6 700825961#6.39 951887664#0 951887664#1 -904196454#4 951887661#0 951887661#1 951887661#2 951887661#3 951878266#0"/>
</vehicle>
<vehicle id = "veh12" type= "veh_passenger" depart="14420" >
<route edges =" 951370989 951370989.40 951370989.47 951370989.53 951370989.56 951370989.62 951370989.64 951370989.67 -902433320#1 -902433320#0 902433321#2 45342799#21 45342809#0 951368600#0 -951368603#1 -951368603#0 -45342835#1 -45342835#0 -45342797#0 45342834#2 45342809#3 45342798#3 -45342837 -45342836#0 -45342818#1 -45342818#0 45342798#5 45342813#0 45342813#1 45342813#2 -45342814#1 44740902#11 -44740885#6 -44740885#5 -44740885#5.33 -671399053 -671399054#0 671399058#1 671399058#2 44740901#4 44740896#0 -951417473 -44740957#6 -44740901#2 -671399049#1 -671399049#0 -671399051#0 -44740942#1 -44740901#0 -313316089 -951438761 -44740929#5 -44740929#4 672215965#0 672215965#0.11 672215965#1 -44740922#0 -313316091#16 45378639#0 45378639#0.48 -45378689#5 -45378689#4 -45378689#2 45378688#0 45378655#0 45378655#1 45378655#2 -45378684#1 -45378684#0 -45378684#0.58 -45378684#0.107 -313316091#5 -313316091#5.44 -313316091#4 -313316091#4.67 -44739163#20 -44739163#19 -44740918#2 -44740918#1 44740931#0 -44740919#0 44740920#8 -313316091#0 -313316091#0.27 -313316091#0.72 -313316091#0.80 -971495601#9 -971495601#9.28 -971495601#8 -971495601#7 -971495601#6 -971495601#5 -971495601#3 -44740910#8 -671410531#2 -909019784#2 -909019784#1 -909019784#1.47 -909019784#0 313316100#8 313316100#8.72 -971495601#0 -313316086 -44739144#26 -903953334#9 -903953334#9.24 -903953334#9.50 -903953334#9.58 -903953334#8 -903953334#8.6 -903953334#8.17 -903953334#8.53 -903953325#4 -903953325#3 -903953325#2 -903953325#2.18 -909778547#2 -951361609 903953324#1 903953324#1.22 702673217#0 702673217#1 702673217#2 896786289#3 -896786294#8 -896786294#7 -896786294#7.20 -896786294#6 -896786294#5 -896786294#5.6 -896786294#5.10 -896786294#5.13 -896786294#5.16 -896786294#5.19 -896786294#5.22 -896786294#4 -909024256#1 -909024256#1.22 -909024256#1.80 -896786277#3 -896786277#2 -896786276 -896786276.82 -896786294#0 -896786294#0.13 877398366#17 877398366#17.93 -909024294#1 -909024294#0 -909024294#0.55 -877396860#17 -877396860#17.23 -877396860#16 904286386#2 904286383#0 904286383#1 896786290#2 -877396860#13 -877396860#12 -904286382#1 -904286383#4 -904286379 -904286381#2 -904286374 -904286375#2 -904286375#2.19 -904286375#1 904286372#1 904286381#4 904286381#6 -896786290#0 904286385#13 904286385#13.24 904286385#15 904286385#15.27 904286386#6 904286386#7 671191683#3 671191683#4 -904371473#4 -904371473#3 -904371471 -904371472#0 -904371482#1 -904371482#1.50 -904371482#1.65 -904371482#0 -904371482#0.24 -904371482#0.73 951973452#0 951973452#1 951973454 -951973453#0 904286387#2 904286387#2.18 951973456#0 951973456#1 -951973451#0 -671191683#0 -671191683#0.3 -671191683#0.13 -671191683#0.21 904371486#0 904371486#1 904371487#0 -904371489#2 -904371489#1 -904371489#1.14 -904371489#1.36 -904371489#1.40 -904371489#1.44 671191682#0 -671191681#3 -671191681#3.14 -671191681#2 -671191681#1 -671191681#0 904286385#1 904286385#2 904286385#3 -951973457 904371492#5 904371492#6 951973470#0 -951973471#4 -904371456#2 -904371456#2.22 -904371456#1 -904371456#0 -904371456#0.17 -671191680#0 -671191680#0.38 -671191680#0.44 -671191680#0.48 -671191680#0.53 -671191680#0.58 -671191680#0.63 -671191680#0.76 -896786327#0 877395784#22 877395784#22.56 877395784#23 -952002224#7 -952002224#7.17 -952002224#7.71 -951973426#2 951951638#9 951973434#1 951951639#3 951951639#4 -951973432#1 -951951638#7 -951951638#5 -951973430#0 -952002224#4 -952002224#4.27 951946798#0 -951951638#3 952000398 951951639#13 -951946794#0 951946792#1 896786337#8 896786337#8.8 896786337#10 896786337#10.21 -951887700#20 671756019#0 -951961251#1 951961247#0 951961247#1 951961247#1.3 951961249#0 951961249#1 951961249#1.17 951961249#1.19 951961249#1.21 951961249#1.24 -951961255 -951961255.19 -951961255.22 -951961255.25 -951961255.27 951961248#1 876509484#7 876509484#7.4 876509484#7.22 876509484#8 876509484#8.5 951961233#0 951961233#0.22 951961233#0.27 951961233#0.32 951961233#0.37 951961233#1 951961233#3 951961233#3.5 951961233#3.10 951961233#3.14 951961233#3.19 951961233#4 -951887700#15 -951961243 -951961242#0 -951961240#1 -951961245 951891772#0 951891772#1 -951891774 -951891771#1 -951891771#0"/>
</vehicle>
<vehicle id = "veh13" type= "veh_passenger" depart="14420" >
<route edges =" 45342801#5 45342801#5.32 902433317#3 951421968#0 951421968#1 951421968#1.20 951421968#2 951421968#2.9 -45344271#34 -951368598#1 -951381446#0 951368595#1 951368595#1.17 951368595#1.34 902433317#8 902433317#8.29 902433317#9 951368594#0 951368594#1 951368594#2 972507120#3 -951369746#4 -951369746#4.24 -951369746#4.27 -951369746#4.29 -951369746#2 -951369746#2.3 -951369746#2.36 -951369746#2.42 -951369746#2.45 -951369746#2.50 951369737#0 951369737#0.14 951369737#0.20 951369737#2 951369737#2.6 951369737#2.11 951369737#2.19 951369737#2.29 951369737#2.37 951369737#2.48 -951369740#1 -951369740#1.11 -951369740#1.14 -951369740#1.18 -951369740#1.22 -951369740#1.28 -951369740#1.32 -951369740#1.36 -951369740#1.40 -951369740#1.44 -951369740#1.64 -951369740#0 -951369740#0.4 -951369740#0.11 45344273#27 45344273#27.17 -897252875#3 -897252874 897252876#1 897252876#1.54 897252876#3 897252876#4 45344320#2 45344320#3 -45344331#4 45344327#1 903341090 -45344335#4 -45344335#3 -45344335#2 699875131#2 -950400194#2 -950400194#1 -950400193#1 -950400193#0 950400195#1 950400195#1.6 950400195#1.15 950400195#1.29 950400195#1.40 950400195#1.46 950400195#1.55 950400195#1.60 950400195#1.66 950400195#1.74 950400195#1.81 950400195#2 950400195#2.6 -45344297#0 -45344297#0.11 -897252883#1 -897252883#0 -897252883#0.7 -897172091#1 -897172091#0 -45344296#0 -45344296#0.92 -45344296#0.150 -901885452#0 -897252884#0 -45344329#1 951370979#0 951370979#1 951370979#1.23 -951370978#0 45344291#1 45344291#1.23 45344291#2 45344291#3 45344291#3.27 45344291#3.54 45344291#3.63 45344291#3.68 45344291#3.139 45344291#4 45344291#4.21 -951370959 -951370959.20 -951370959.22 -951370959.23 -951370959.27 -951370959.28 -951370959.29 -951370959.30 -951370959.31 -897252850#4 -897252850#3 -897252850#2 -897252850#2.11 -897252850#2.29 -897252850#1 -897252850#1.5 -897252850#0 897252852#3 897252852#5 897252852#6 897252852#6.19 897252858#3 -45344286#12 -45344286#11 951404497 951404497.20 951404497.26 951404497.33 951404497.38 951404497.43 -897252855#0 -45344287#0 -45344287#0.5 -45344287#0.14 -951384608#1 -951384608#1.59 -951384608#1.63 -951384608#1.67 -951384608#1.69 -951384608#1.73 -951384608#0 -951384608#0.43 -951384608#0.47 -951384608#0.50 -951384608#0.52 -702632123#1 -702632123#1.4 -951404495 -951384610#0 45344272#12 45344272#13 45344272#13.4 45344272#13.35 45344298 896892974 971495602#11 971495602#12 971495602#12.26 971495602#12.77 951442813 951442812#0 -896786335#50 -896786335#49 -896786247#9 -896786247#9.8 -896786247#9.17 -896786247#9.75 -896786247#9.157 -896786247#8 -896786247#7 -896786247#7.2 -896786247#6 -896786247#6.66 -896786247#6.103 -896892976#1 -896892976#1.4 -896892977#3 -896892977#3.15 -896892977#3.37 -896892977#2 908869250#5 -908869248#1 -908869248#1.4 -908869248#1.6 -908869248#1.9 -908869248#1.11 -908869248#1.19 -951358827#2 -951358826 -951358826.10 -951358826.13 -951358826.16 -951358826.19 -951358826.36 -951358826.40 -951358826.44 -951358826.49 -896786335#42 -896786335#42.22 -896786335#41 -896786335#40 -896786335#39 -896786335#39.27 -896786335#37 -896786335#36 -896786335#34 -896786335#33 -876614662#9 -876614662#9.32 -951354772#1 -951354772#1.39 -951354772#1.50 -951354772#1.59 -951354772#0 -951354772#0.6 -951355289#1 -951355289#0 896893016#0 896893017#0 -896893018#1 -896893018#1.27 -896893018#0 -877388728#13 -877388728#13.55 -877388728#11 -896893005#1 -951995485 896893004#2 896893004#3 896893004#3.24 896893004#4 896893002 896893002.42 -896786335#22 -896893013#7 -896893013#7.29 -896893013#7.87 -896893013#6 -896893013#6.15 -896893013#5 -896893013#5.11 -896893013#5.13 -896786308#6 -896786308#6.17 -896786308#4 -896786308#3 -896786308#3.7 877388976#1 877388976#1.12 877388976#1.51 877388976#1.72 896786304#1 896786304#2 896786300#0 896786300#0.23 896893013#0 896893013#0.10 896893013#0.59 -896893009 -896893009.79 -896893012#4 -896893012#3 -896893012#2 -896893012#2.9 -896893012#1 -896893012#0 -896893012#0.11 896786303#5 896786303#5.27 896786303#5.100 896786303#5.124 896786303#6 896786303#6.29 896786302#1 896786304#6 -951983587#6 -951983587#5 -951983621#1 -951983621#1.8 -951983621#1.12 951983619 951983619.46 951983619.50 951983619.52 951983619.56 951983616#1 951983617#0 951983617#0.43 877398739#1 877398739#2 877398739#2.30 -951983590 -896786311#9 -896786311#8 896786321#0 896786321#0.46 896786321#0.171 -951976012 -951976012.34 -951976012.37 -951976012.40 -951976012.44 -896786320#3 -896786320#3.5 -896786320#1 -877396172#5 -877396172#3 896786315#0 896786315#2 896786315#4 896786318 896786318.40 -896786319#0 -896786319#0.11 -896786335#4 -896786335#4.18 -896786335#3 -896786335#3.10 -896786335#2 -896786335#1 -896786335#1.14 -896786335#0 877395784#17 877395784#17.13 877395784#17.29 -951946816#15 951946795#0 951946795#0.4 951946795#0.7 951946795#0.9 951946795#1 951946795#2 951946795#3 951946795#4 951946795#6 951946795#7 951946795#9 951946795#10 951946795#11 951946795#11.34 951946795#11.40 951946795#11.45 -951887683 -951887684 -951887682#6 951887695#5 -951887700#19 -951887700#18 -951887700#17 -951887700#17.17 951961234#0 951961234#1 -951878265#2 951878263#1 951878263#1.39 951878263#1.46 951878263#1.53 951878263#1.72 951878263#1.75 951878263#2 951878263#2.2 -951878266#4 -951878266#4.37 -951878266#2 -951878266#1 -951878266#1.39 -951878266#1.47"/>
</vehicle>
<vehicle id = "veh14" type= "veh_passenger" depart="14420" >
[...]
</vehicle>
<vehicle id = "veh18" type= "veh_passenger" depart="21630" >
<route edges =" 951370989 951370989.40 951370989.47 951370989.53 951370989.56 951370989.62 951370989.64 951370989.67 -902433320#1 -902433320#0 902433321#2 -45342799#20 -45342797#4 -45342797#3 -45342797#2 -951370983 951368602#1 -951368601#0 -951368603#0 45342835#2 45342809#2 45342809#3 45342809#4 45342809#5 45342809#6 -951370985#1 951441769 -45342836#0 -45342818#1 -45342817#2 -45342817#1 45342816#0 -951370984#0 -45342803#6 -45342803#5 44740885#9 44740885#9.112 45342809#9 45342809#10 45342809#10.44 45342809#11 -45342831#3 45342822#0 -45342832#1 -45342832#0 -45342804#2 45342831#0 951421967 -951417480#0 45342805#4 45342809#14 45342824#0 -45342833#2 -45342833#1 -45342833#0 -897252872 -897252872.99 -45342808#2 45342804#0 -45342843#3 -45342843#2 -45342843#1 -45342843#0 44740957#2 44740957#4 -671399051#1 -671399051#0 44740942#2 44740942#2.58 -874839172#0 -44740943 -313316091#20 -313316091#19 -313316091#18 -313316091#18.26 -313316091#17 -313316091#16 -313316091#14 -313316091#14.20 -671761561 45378689#5 45378639#1 45378639#1.38 45378639#2 45378639#2.25 45378639#2.39 45378639#3 45378639#4 -699869913 -699869913.14 -699869913.19 -699869913.23 -699869913.28 -45378640#3 -45378683#4 -45378683#4.30 -45378683#4.33 -45378683#4.36 -45378683#4.38 -45378683#4.41 -45378683#4.68 -45378683#4.75 -45378683#4.81 -45378683#4.88 -45378683#3 -45378683#2 -45378655#1 45378640#0 45378640#1 -45378658#2 -45378658#1 -45378686#1 -45378686#0 -45378690#1 -45378691 -45378682#0 -45378682#0.30 313316091#10 313316091#10.40 951438765 44740948#1 -44740940#1 44740945#0 44740945#1 -44739167#13 -44740953#3 -44740953#2 -44740923#3 44740927#17 -44740967#4 -44740929#0 -44740930#11 44740922#8 955410234 102277232#1 102277232#2 102277232#2.138 102277232#3 102277232#4 102277232#4.80 102277232#4.133 102277232#4.154 102277232#5 -951438769 44740930#2 44740930#3 44740930#4 44739156#14 44740981#0 44740981#1 -44739163#15 44740930#6 44740930#7 44739167#10 44739167#11 -44740927#13 -44740927#12 -44740927#11 -951358801 -44740953#5 44740951#0 44740951#1 -44740949#0 44739167#15 44739167#15.29 -313316091#6 -313316091#5 -313316091#5.44 -313316091#4 -313316091#4.67 -313316091#2 -313316091#2.44 -313316091#1 -313316091#1.32 -44740920#8 -951358792 -951358792.26 -951358792.42 -951358792.53 -951358792.66 896892969#18 -971495601#9 -971495601#9.28 -971495601#8 -971495601#7 44740916#12 44740916#13 909019768#0 909019768#0.14 909019768#0.25 909019768#1 909019767#0 909019767#0.42 909019767#1 909019767#1.24 909019767#1.35 -971495601#5 -971495601#3 -971495601#1 -971495601#0 -313316086 -44739144#26 -44739144#24 909024272#0 909024272#0.29 909024273#0 909024273#0.33 909024273#1 909024273#2 909024273#3 -896786296#17 -896786296#17.6 -896786296#17.12 -896786296#17.79 -896786296#16 -896786296#15 -896786296#15.18 -896786296#14 -896786296#14.71 -909024258#1 -909024258#1.26 -951347813#1 -951347813#1.7 -951347813#1.12 -951433464 -951347814#0 -951347814#0.2 -951347814#0.5 -909024259#0 896786295#5 896786295#6 896786295#6.12 896786295#8 896786295#8.21 896786295#8.23 896786295#9 896786295#10 -896786269#9 -896786269#7 -896786275#0 -896786275#0.11 896786268#2 896786268#2.6 896786268#3 896786295#13 -896786294#5 -896786294#5.6 -896786294#5.10 -896786294#5.13 -896786294#5.16 -896786294#5.19 -896786294#5.22 -896786294#4 -896786294#3 -896786294#3.26 -896786294#2 -896786294#2.7 -896786294#0 -896786294#0.13 -877398366#16 -877398366#15 -877398366#15.29 -904286380#3 -904286380#3.41 -904286380#2 877396860#13 -896786290#2 904286383#2 -904286380#0 -951992355 -904286385#10 -904286385#9 -904286385#8 -904286385#6 951973468#1 951973468#2 951973468#2.24 951973468#2.27 951973468#2.29 951973468#2.32 904371490#1 904371490#2 904371490#4 -904286385#4 -904286385#3 904371491 904371492#3 951973476#0 951973476#1 -951973471#2 -951973471#2.11 -951973471#2.14 -951973471#2.17 -951973471#2.20 -904371456#1 -904371456#0 -904371456#0.17 -671191680#0 -671191680#0.38 -671191680#0.44 -671191680#0.48 -671191680#0.53 -671191680#0.58 -671191680#0.63 -671191680#0.76 -896786327#0 -877395784#21 -877395784#21.14 -951951638#10 -951951638#10.18 951973434#1 951951639#3 951951639#4 -951973432#1 -951973432#0 -952002224#5 -952002224#5.5 -952002224#4 -952002224#4.27 -952002224#3 -952002224#3.30 -952002224#3.48 -952002224#3.80 904286410#0 904286410#0.33 904286409#0 -951874860#1 951874872 -951874859#1 -904286409#2 -904286409#2.22 -951874861 -904286402#1 -904286402#0 -904286410#2 -904286411#3 -904286411#2 -904286411#2.14 -951874848#1 -951874848#0 -952002224#1 896786337#4 951951638#0 -952000397 951951639#15 896786337#6 896786337#7 896786337#8 896786337#8.8 896786337#10 896786337#10.21 -951887700#20 -951887695#5 -951887682#5 -951887682#4 951887687#0 951887687#0.26 951887687#1 951887687#1.5 951887687#1.11 -951887700#15 -951887700#14 -951887679#2 951887680 -951887678#1 -951887678#0 -951887674#2 -951887674#1 -951887674#1.5 -951887674#1.8 -951887674#0 904196453#11 -951887667#7 951887672#2 -951887669#2 951887673#1 951887671#1 951887672#4 904196452#8 904196452#8.23 904196453#13 951887700#7 951887700#7.21 951887700#7.25 951887700#8 951887700#8.5 951887700#8.7 951887700#8.11 951887700#10 951887700#11 951961240#0 951961240#0.54 951961240#0.57 951961240#0.59 951961240#0.62 -951961245 951891772#0 -951891773 -951891771#0"/>
</vehicle>
<vehicle id = "veh19" type= "veh_passenger" depart="21630" >
<route edges =" 45342801#5 45342801#5.32 902433317#3 902433317#4 902433317#6 902433317#7 902433317#8 902433317#8.29 902433317#9 951368594#0 951368594#1 -951369743#1 -951369743#1.33 -951369743#1.39 -951369743#0 -951369743#0.6 951369744#2 951369744#2.22 951369744#2.31 951369744#3 951369744#3.5 951369745#2 951369745#2.2 951369745#2.14 951369745#2.20 951369745#2.26 -951369735 -951369735.5 -951369735.10 -951369735.15 -951369735.24 -951369735.30 -951369735.36 -951369740#1 -951369740#1.11 -951369740#1.14 -951369740#1.18 -951369740#1.22 -951369740#1.28 -951369740#1.32 -951369740#1.36 -951369740#1.40 -951369740#1.44 -951369740#1.64 -951369740#0 -951369740#0.4 -951369740#0.11 45344273#27 45344273#27.17 45344273#28 45344273#29 45344273#29.12 45344273#29.34 45344273#30 45344273#30.8 45344273#30.25 45344273#30.39 897252882#1 897252882#1.10 897252882#2 897252882#2.30 897252882#2.48 897252882#3 897252882#3.15 -950755152#2 -950755152#2.42 -950755152#2.59 -950755152#2.65 950755151 950755151.35 950755151.45 950755151.55 45344271#26 45344271#26.18 45344271#27 950757969#0 950757969#1 950757969#1.14 -950235712#3 -950235712#3.27 -950235712#3.30 -950235712#3.34 -950235712#3.37 -950235712#1 -950235712#1.23 -950235712#1.27 -951132942#8 -950235713#4 -950235713#4.13 -950235713#4.16 -950235713#4.19 -950235713#4.23 950757960#1 -951132942#4 -950757968 950757969#5 -950757962#1 950757961 -950757964#0 950235711#3 -951132942#2 -951132942#1 -951132942#0 -950235714#1 -950235714#0 -950235714#0.32 -45344271#22 -45344271#22.29 950755153 950755153.14 950755153.22 950755153.29 950755153.35 950755153.53 950235707#1 897252886#1 897252886#1.30 897252886#1.51 897252886#2 897252886#2.18 897252886#2.33 897252886#4 897252886#4.10 897252886#4.25 897252886#4.39 45344273#32 45344273#32.22 45344273#32.44 45344273#33 950780326#0 950780326#0.30 950780326#0.63 950780326#1 950780326#1.17 950780326#1.24 950780326#1.29 950780326#1.45 950780326#1.86 -903341095#1 -903341095#0 45344276#0 -950759346#1 -950759346#0 950806855#5 -45344278#5 950238180#0 -950238181#3 -950238181#3.14 -950238181#3.23 -950238181#3.29 -950238181#3.37 -950238181#3.46 -950238182#2 -950238182#2.10 950780323 950780323.8 950780323.15 950780323.22 950780323.29 950238184#3 950238184#3.9 950238184#4 -45344271#13 -45344271#13.24 -45344271#12 -45344271#11 897252880#7 897252880#7.68 950238184#0 950238180#4 950238180#4.24 950238180#5 950238180#5.14 950238178#1 950755158 950755158.30 950755158.35 950755158.39 950755158.45 950238179#1 -950235701 -950732876 950732875#0 950732875#1 -950235694#1 950235695#3 -45344336#5 -700254524#1 -700254524#0 700254525#12 700254525#12.12 950235692#0 950235694#3 -950235703#3 -950235703#2 -950235703#2.9 -950235703#0 -950235703#0.13 -950235703#0.32 -950235703#0.55 -950235703#0.71 -950235703#0.86 -950235703#0.97 -950235703#0.108 950235699#5 -950238177#1 -950238177#1.15 950235705#0 950455048#0 950455048#0.35 950455048#0.40 950455048#0.45 950455048#1 950455048#1.12 950455048#1.23 950455048#1.41 -950235694#6 -950235694#6.23 -950235694#6.27 -950235694#6.30 -950235694#6.35 951381436 951381436.26 951381436.34 951381436.39 951381436.45 -897252875#0 -897252875#0.4 -897252875#0.15 -897252875#0.35 897252876#3 897252876#4 45344320#2 45344320#3 45344320#4 -897172091#13 -950400189 -45344335#5 -45344335#4 -950235690#1 -950235690#0 -950235690#0.14 -700254525#9 -700254525#8 -700254525#6 950400195#0 950400193#0 950400192#0 950235689#1 950235689#2 -45344335#0 -45344335#0.49 -45344297#0 -45344297#0.11 699875130#3 699875130#3.37 -897172091#0 -45344294#6 -45344294#6.9 -45344294#6.25 951381432#0 951381432#0.88 951381432#0.91 951381432#1 951381432#1.2 951381432#1.5 951381432#1.8 -951370961#1 -951370960 -897252858#0 951370959 951370959.15 951370959.16 951370959.17 951370959.18 951370959.20 951370959.23 951370959.24 951370959.25 951370959.26 -45344294#4 -45344294#4.7 -45344294#4.18 -45344294#3 897252857 897252858#2 897252858#3 -45344286#12 -45344299 -45344299.40 -45344299.79 -45344299.80 -45344299.82 -45344299.84 -45344299.86 -45344299.89 -45344299.97 -45344299.99 -45344299.101 -45344299.106 -896892971#1 -896892971#0 -896892971#0.14 -896892971#0.28 -896892971#0.54 -896892971#0.88 -45344286#8 -951384608#1 -951384608#1.59 -951384608#1.63 -951384608#1.67 -951384608#1.69 -951384608#1.73 -951384608#0 -951384608#0.43 -951384608#0.47 -951384608#0.50 -951384608#0.52 -702632123#1 -702632123#1.4 -702632123#0 45344272#13 45344272#13.4 45344272#13.35 45344298 896892974 971495602#11 971495602#12 971495602#12.26 971495602#12.77 951442813 951442812#0 -896786335#50 -896786335#49 -896786335#48 -896786335#48.15 -896786335#47 -896786335#46 -896786335#44 -896786335#44.9 -896786335#44.71 -896786335#43 -896786335#42 -896786335#42.22 -896786335#41 -896786335#40 -896786335#39 -896786335#39.27 -896786335#37 -896786335#36 -896786335#34 -896786335#33 -951354773#3 -951354773#3.20 -951354773#3.23 -951354773#3.26 -951354773#3.28 -951354773#3.30 -951354773#3.32 -951354773#3.34 -951354773#3.38 -951354773#3.40 -951354773#3.43 -951354773#3.45 -951354771#1 -951354771#0 896893028#5 -896786335#29 -896786335#29.17 -896786335#28 951358824#0 951358824#0.11 951358824#0.16 951358824#0.21 951358824#0.29 951358824#0.41 951358824#0.47 951358824#0.52 951354763#2 951354763#3 951354763#4 -951995493#0 -951995491#1 -951995491#0 -896786266#12 909024250#0 909024249 909024249.20 909024249.72 -896893011#1 -896893011#0 -896893011#0.52 -896893013#2 -896893013#1 -896893013#1.7 -896893009 -896893009.79 -896893012#4 -896893007#1 -896893007#1.18 -896893008#1 -896893008#0 896786300#2 896786300#2.40 896786300#2.70 896786300#3 896786300#3.17 -896786335#14 -896786335#14.27 -896786335#13 -896786335#12 -896786335#12.15 -951983583#1 -951983583#0 -951983583#0.24 -951983583#0.28 -951983583#0.32 -951983583#0.38 -877396860#0 -877396860#0.8 -877396860#0.28 -896786335#10 -896786335#10.38 -896786335#9 -896786335#8 -896786335#8.39 -896786335#7 -896786335#6 -896786335#4 -896786335#4.18 -896786335#3 -896786335#3.10 -896786335#2 951976001#0 -951976002 -951976000#1 -951976000#0 -896786335#0 877395784#17 877395784#17.13 877395784#17.29 877395784#19 951951639#0 951951639#1 951946802 951946795#2 -951946801 951951639#6 951951639#7 -951973430#1 -951951638#4 951946798#1 951951639#10 951951639#11 951946796#0 951946804 951946804.28 951946804.31 951946804.34 951946804.37 951946795#11 951946795#11.34 951946795#11.40 951946795#11.45 -951887683 -951887684 -951887682#6 951887695#5 671756019#0 671756019#1 671756019#2 671756019#2.43 671756019#3 -951961235 951961234#1 -951878265#2 -951878265#1 -951878266#5 -951878266#5.22 -951878266#5.29 -951878266#5.37 -951878266#4 -951878266#4.37 -951878266#2 -951878266#1 -951878266#1.39 -951878266#1.47"/>
</vehicle>
<vehicle id = "veh20" type= "veh_passenger" depart="21630" >
<route edges =" -45342801#4 -45342801#3 -45342801#2 -951368604 951368605#1 -903341082#1 -672813677#4 -672813677#4.16 -672813677#2 -672813677#1 -672813677#1.10 -672813677#1.22 -672813677#0 -672813677#0.12 -672813677#0.41 45342799#25 45342799#25.7 45342799#25.22 45342799#26 45342799#27 45342799#27.15 45342799#27.20 45342799#27.25 45342799#27.36 972507120#0 972507120#2 45342812#0 45342812#1 45342811#2 45342811#2.66 -45344273#22 -45344273#22.6 -45344273#22.18 -45344273#22.35 -45344273#21 -45344273#21.28 -951441770 45342810#5 45342810#6 45342810#6.38 44740885#17 -45344273#14 -45344273#14.32 -45344273#13 -45344273#12 -45344273#11 -45344273#10 -45344273#10.42 -45344273#9 -45344273#8 -45344273#8.10 -45344273#7 -45344273#7.22 -45344273#6 -45344273#6.40 -45344273#6.59 -45344273#5 -45344273#5.6 -45344273#5.15 -45344273#4 -45344273#4.8 -45344273#4.37 -45344273#3 -45344273#3.6 -45344273#3.14 -45344273#3.31 -45344273#3.48 -45344273#2 -45344273#2.6 -45344273#2.24 -951404493 -951404493.17 -951404493.21 -951404493.24 -951404493.26 -951404493.29 -951404493.32 -951404493.38 -951404493.57 -951404493.66 -951404493.74 -700249212#0 700249213#10 -951404492 -951417468 -951417468.27 -951417468.30 -951417468.32 -951417468.34 -45342808#7 -45342808#7.16 -45344273#0 -897252881 -45378637#10 45378639#7 -951404483#2 -951404483#1 -951404474#1 951404473 -951404484#6 -951404484#5 -951404484#4 -951404484#4.8 -951404484#4.11 -951404484#4.13 -951404484#4.15 -951404484#3 -951404484#3.5 -951404484#3.9 -951404484#3.14 -951404484#3.25 -951404484#3.32 -951404484#2 -951404484#2.19 -951404484#2.23 -951404484#2.26 -951404484#2.29 -951404484#0 -951404484#0.3 -951404484#0.6 -951404484#0.11 -951404484#0.38 -45344310#0 -45344310#0.10 -45344310#0.18 -45344310#0.30 -45344310#0.41 -45344310#0.52 971495602#8 971495602#8.24 971495602#8.86 -313316104#6 -313316104#5 -313316104#5.12 -313316104#5.27 -313316104#5.46 -313316104#4 -313316104#4.4 -313316104#4.18 -313316104#4.31 -313316104#4.41 -313316104#4.56 -313316104#3 -313316104#2 -313316104#2.13 -313316104#2.35 -313316104#2.44 -313316104#1 -313316104#0 -313316082 -45378649#12 896786296#0 -951355298#2 -951355298#2.7 -951355298#2.9 -951355298#2.11 -951355298#2.15 -951355298#2.38 -951355298#2.43 -951355298#1 -951355298#1.5 -951355298#1.10 -951355297#1 -951355296 -951354759#0 -951354759#0.4 -951354759#0.15 -951354759#0.20 -951354759#0.24 -45378649#5 -45378649#5.24 -45378649#5.57 -45378649#5.68 951354762#0 951354762#0.9 951354762#0.12 951354762#0.15 951354762#0.18 951354762#0.94 951354762#0.96 951354762#0.97 951354762#0.99 951354762#0.100 951354762#0.102 951354762#0.106 951354762#0.107 951354762#0.109 951354762#0.110 951354762#0.112 951354762#0.127 951354762#0.129 951354762#1 951354762#1.1 951354762#1.3 951354762#1.20 896786261 -896786262#1 -951354764#1 896786263#2 896786263#2.22 896786263#4 896786263#6 896786263#7 896786263#7.19 -896786249#0 -896786249#0.32 -896786249#0.71 -896786265#0 909024253#0 909024253#1 909024253#1.45 -896786293#7 -896786293#6 -896786293#5 -896786293#5.20 896786257#7 896786257#7.17 896786257#7.37 896786257#7.44 896786257#7.49 896786257#7.54 -45378665#1 909024239#0 909024239#1 909024239#1.17 909024239#2 909024239#2.40 877398366#3 -951995475#3 -896786288#1 -896786291#0 -896786291#0.44 -896786292#0 -896786292#0.39 -951995475#1 -951995475#1.25 -951995475#0 896786293#2 896786293#2.8 896786293#2.28 896786293#2.36 896786293#2.45 896786293#2.48 896786293#2.52 45378665#3 45378665#3.37 45378665#3.58 909024287#0 909024287#0.8 909024287#0.15 909024287#0.65 909024287#2 909024287#3 909024287#3.52 -876614861#2 -909024289#6 -909024289#6.17 909024284 909024284.27 -896786269#0 896786283#1 896786283#1.25 896786283#1.45 -909024289#4 -909024289#3 -909024289#3.21 -909024289#2 -909024289#1 -909024289#1.25 -909024289#1.69 -909024289#1.74 -909024289#1.90 -909024289#1.103 -909024289#1.130 -877396033#7 -877396033#7.19 -877396033#7.29 -877396033#7.75 -877396033#5 -877396033#5.40 -877396033#4 -877396033#4.15 896786285 896786285.95 -877398366#9 896786286#0 896786286#0.25 896786286#1 896786286#1.15 896786286#2 896786286#2.19 -896786292#4 -896786292#4.15 -896786292#3 -877398520#2 -877398520#2.20 -877398520#0 -877398520#0.16 -904371459 -904371459.17 -904371459.33 904371460#2 904371460#2.34 904371460#4 904371460#4.17 904371460#4.32 904371460#5 -896786328#3 -896786328#3.70 -896786328#2 -896786328#2.49 -896786328#1 -896786328#0 -896786328#0.177 -877395784#20 -877395784#19 -877395784#17 -877395784#17.8 -877395784#17.24 -951946803#2 -951946816#13 -951946816#13.3 -951946816#13.8 -951946816#12 951946833#1 951951640 951946817#2 951946817#3 951946817#4 -951951636 951951635#2 -951946806#8 -951946806#7 -951946806#6 -951946806#6.36 -951946806#6.39 -951946806#6.41 -951946806#6.44 -951946806#4 -951946806#2 951951630 951946833#11 951946833#11.92 951946833#11.95 951946833#11.98 951946833#11.101 -951946806#0 -952365020 -952365021 -951878231#2 951868619#0 951868620#0 -951868611#1 -951878231#0 951951645 -951951643#3 -951951643#2 -951951643#1 951951648#0 951951649 951878263#7 951878263#8 951878230#4 -951891772#4 -951961237 951891766#3 951878270#0 951878270#0.33 951878270#0.36 951878270#0.39 951878270#0.42 951930613 -951878269#9 951891767 951891769#0 951891769#0.18 951891769#0.24 951891769#0.29 951891769#0.46 951891769#0.50 -951891768 -950288028#1 -950288028#0 951878269#5 951878269#6 -951891764#4 -951887656#2 -951887656#1 -951887656#0 -951887655#3 -951887655#2 951887657 -951891763#2 -951887659#1 -951887660#5 -951891765#3 -951891763#0 -951891764#0 -951887663#3 951887661#3 951878266#0"/>
</vehicle>
</routes>
