<?xml version="1.0" encoding="UTF-8"?>
<routes xmlns:xsi="http: // www.w3.org/2001/XMLSchema-instance" xsi:noNamespaceSchemaLocation="http: // sumo.dlr.de/xsd/routes_file.xsd">
<vType id="veh_passenger" vClass="passenger"/>

<vehicle id = "veh0" type= "veh_passenger" depart="0" >
<route edges =" -45342801#4 -45342801#3 -45342801#2 -45342801#1 -45342801#0 45342798#2 45342798#3 45342798#4 45342798#5 45342813#0 45342813#1 45342813#2 -45342814#1 44740902#11 44740902#12 44740902#13 44740902#14 44740902#14.81 44740902#14.94 -874839172#0 -44740943 -313316091#20 951438760#0 951438760#1 -44740929#4 -951438759 44740922#2 44740922#2.25 44740953#0 44740953#2 44740953#3 44740953#4 44740953#5 44740953#6 44740953#7 44740949#2 -44740919#1 -44740919#0 44740920#8 -313316091#0 -313316091#0.27 -313316091#0.72 -313316091#0.80 -971495601#9 -971495601#9.28 -971495601#8 -971495601#7 -971495601#6 -971495601#5 -971495601#3 -971495601#1 -971495601#0 -313316086 -44739144#26 -44739144#24 -44739144#22 -44739144#21 -44739144#20 -44739144#19 -44739144#19.14 -44739144#18 -877398366#21 -877398366#20 -877398366#19 -877398366#18 -877398366#17 -877398366#17.7 -877398366#16 -877398366#15 -877398366#15.29 -877398366#14 -877398366#14.72 -877398366#13 -671191680#14 -671191680#13 -671191680#11 -671191680#9 -671191680#8 -671191680#6 -896786326#1 -896786326#0 -896786328#0 -896786328#0.177 -951951638#10 -951951638#10.18 -951951638#9 -951951638#8 -951951638#7 -951951638#5 -951951638#4 -951951638#3 -951951638#2 -951946794#1 -951946794#0 951946792#1 896786337#8 896786337#8.8 -951887683 -951887684 -951887682#6 -951887682#5 -951887682#4 -951887682#3 951887692 -951887691#0 -951887682#0 -951887700#14 -951961240#3 -951961240#1 -951961245 951891772#0 -951891773 -951891771#0"/>
</vehicle>
<vehicle id = "veh1" type= "veh_passenger" depart="0" >
<route edges =" 45342801#5 45342801#5.32 902433317#3 902433317#4 902433317#6 902433317#7 902433317#8 902433317#8.29 951368593#1 972507120#2 45342812#0 45342812#1 45342811#2 45342811#2.66 45344273#23 45344273#23.11 45344273#24 -897252873#2 -897252873#1 -897252873#1.42 -897252873#0 -897252873#0.25 897252876#4 45344320#2 45344320#3 -45344331#4 45344327#1 903341090 -45344335#4 -950235690#1 -950235690#0 -950235690#0.14 700254525#11 700254524#0 700254523 -700254525#0 45344272#4 950233988#0 45344283#9 45344283#10 45344283#10.15 45344283#10.46 45344283#10.69 45344283#10.88 45344283#10.150 45344283#10.196 45344283#10.260 45344283#10.377 45344283#10.468 45344283#10.514 670655885 670655885.12 896892975 971495602#12 971495602#12.26 971495602#12.77 951442813 951442812#0 -896786335#50 -896786335#49 -896786335#48 -896786335#48.15 -896786335#47 -896786335#46 -896786335#44 -896786335#44.9 -896786335#44.71 -896786335#43 -896786335#42 -896786335#42.22 -896786335#41 -896786335#40 -896786335#39 -896786335#39.27 -896786335#37 -896786335#36 -896786335#34 -896786335#33 -896786335#32 -896786335#32.17 -896786335#31 -896786335#31.22 -896786335#30 -896786335#29 -896786335#29.17 -896786335#28 -896786335#27 -896786335#27.19 -896786335#26 -951995494#1 -951995491#2 -951995491#1 -951995491#0 -896786266#12 909024250#0 909024250#1 909024250#2 909024250#4 909024250#5 909024250#6 909024239#0 909024239#1 909024239#1.17 909024239#2 909024239#2.40 -951983585 -951975994 -896786324#1 -896786324#0 -896786324#0.19 -896786324#0.132 -896786324#0.177 951951639#0 951946803#0 951946795#1 951946795#2 951946795#3 951946795#4 951946795#6 951946795#7 951946795#9 951946795#10 951946795#11 951946795#11.34 951946795#11.40 951946795#11.45 896786337#10 896786337#10.21 -951887700#20 -951887700#19 -671756019#4 -951961235 951961234#1 -951878265#2 -951878265#1 -951878265#0 951878264#2 -951878263#3 -951878266#4 -951878266#4.37 -951878266#2 -951878266#1 -951878266#1.39 -951878266#1.47"/>
</vehicle>
<vehicle id = "veh2" type= "veh_passenger" depart="0" >
<route edges =" 951370989 951370989.40 951370989.47 951370989.53 951370989.56 951370989.62 951370989.64 951370989.67 -902433320#1 -902433320#0 902433321#2 45342799#21 45342809#0 45342809#1 45342809#2 45342809#3 45342809#4 45342809#5 45342809#6 45342809#7 45342809#8 44740885#10 -45342826#1 -45342826#0 45342825#1 45342825#2 45342828#0 45342828#1 45342828#1.100 -45344273#6 -45344273#6.40 -45344273#6.59 -951384598#3 -951384598#2 -951404491 -951404491.16 -951404491.28 -951404491.40 -951404491.51 -951384599#0 700249213#9 700249213#10 700249213#11 45342808#10 45342808#11 45342808#11.24 45342808#12 -897252871 -897252870 -45344310#2 -45344310#1 -45344310#0 -45344310#0.10 -45344310#0.18 -45344310#0.30 -45344310#0.41 -45344310#0.52 971495602#8 971495602#8.24 971495602#8.86 -313316104#6 -45378650#5 -45378650#5.11 -45378650#4 45378645#0 45378645#0.44 -908846596#3 -908846596#2 45378650#1 -908846593 -908846593.73 908560901#8 908560901#8.23 908560901#8.56 -313316104#0 -313316082 -45378649#12 896786296#0 896786296#1 896786296#1.36 -896786262#6 -896786262#6.15 -896786262#5 -896786262#4 -896786262#4.31 -896786262#3 -896786262#3.9 -896786262#1 -896786262#0 -896786262#0.33 -896786262#0.115 -896786260#1 -896786260#1.5 -896786260#0 -896786260#0.52 896786257#4 909024248 909024248.50 -45378665#3 -45378665#3.29 -45378665#3.50 -45378665#2 -45378665#2.36 -45378665#1 -45378665#0 -45378665#0.39 -45378665#0.75 -896786335#14 -896786335#14.27 -896786335#13 -896786335#12 -896786335#12.15 -896786335#11 -896786335#10 -896786335#10.38 -951976010#1 -951976011#0 896786321#2 -896786320#3 -896786320#3.5 -896786320#1 -896786320#0 -896786316#3 -896786316#2 -896786316#1 -896786316#1.33 -896786314 -951930663#1 -951930663#0 -877395784#11 -877395784#11.58 951946825#0 951946825#1 -951946816#4 951946844 877399011#1 951946810#2 -896786337#14 -896786337#14.40 -896786337#14.111 -952365020 -952365021 -951878231#2 -951951643#6 -951951643#5 -951951643#4 -951951643#3 -951951643#2 876509484#2 -951951642#1 -951951642#0 -951878263#5 -951878269#15 -951891772#2 -951891774 951891771#2 951878270#2 877401978#0 877401978#1 951878266#0"/>
</vehicle>
<vehicle id = "veh3" type= "veh_passenger" depart="3605" >
<route edges =" -45342801#4 -45342801#3 -45342801#2 -45342801#1 -45342801#0 45342798#2 45342798#3 45342798#4 45342798#5 45342798#6 44740902#9 44740902#9.47 -951370984#2 -45342813#1 45342817#0 45342817#1 -45342803#7 -45342803#6 -45342814#3 -45342814#2 -45342814#1 44740902#11 44740885#7 -45342841 45342802#2 -45342803#1 44740957#0 -951417477 45342843#2 45342843#3 45342804#1 45342831#0 -951417482#2 -951417482#1 -951417481 -45342805#2 -45342805#1 -45342805#1.66 -45342805#0 -45342805#0.29 -45342808#2 -45342808#1 -45342808#1.101 -45342844 -45342843#0 44740957#2 44740902#14 44740902#14.81 44740902#14.94 -44740942#2 -44740942#2.11 -44740942#1 -44740942#0 974189220#5 902433296 44740967#0 44740967#1 44740967#2 44740967#3 -44740929#0 44740930#12 44740930#13 44740930#14 44740963 44740962#1 951439009 44740929#8 44740929#9 44740929#9.20 44740929#10 955813295#1 955813295#1.169 955410233 -44740922#8 -44740930#10 44740923#0 44740989#1 -44740922#6 44740926#0 44740926#1 44740924#0 -44740955#2 -44740955#1 -44740955#0 44740925#3 44740927#15 44740927#16 44740927#17 -44740922#3 44740953#0 -951438764 -951438764.47 -951438764.119 45378639#0 45378639#0.48 -45378689#5 -45378689#4 45378686#0 45378686#1 -45378658#0 45378639#2 45378639#2.25 45378639#2.39 45378639#3 45378639#4 -699869913 -699869913.14 -699869913.19 -699869913.23 -699869913.28 -45378640#3 -45378683#4 -45378683#4.30 -45378683#4.33 -45378683#4.36 -45378683#4.38 -45378683#4.41 -45378683#4.68 -45378683#4.75 -45378683#4.81 -45378683#4.88 -45378683#3 -45378653#6 -45378685#3 -45378655#3 -45378655#2 -45378655#1 -45378655#0 -45378688#0 -45378689#1 -45378682#1 -45378682#0 -45378682#0.30 -44740946#1 44740948#0 44740948#1 -44740940#1 44740945#0 44740945#1 -44739167#13 44740953#4 44740953#5 951358801 951358806#0 951358806#1 -44740926#7 44740928#1 -951358805#1 -951358802 44740927#12 44740927#13 -44739167#11 -44740926#5 -44740925#1 -44740925#0 -44740930#8 -44739167#9 102277232#2 102277232#2.138 102277232#3 102277232#4 102277232#4.80 102277232#4.133 102277232#4.154 102277232#5 -951438769 44740930#2 44740930#3 44740930#4 44739156#14 44739156#15 44739156#16 -44740927#4 -44740927#3 44740920#3 951358797#0 951358797#0.19 951358797#0.36 951358797#0.45 951358797#0.49 951358797#0.51 951358797#0.53 951358797#0.55 951358797#0.57 951358797#0.58 951358797#0.64 951358797#0.66 951358797#0.68 951358797#0.70 951358797#0.72 951358797#0.75 951358798#0 951358798#0.18 951358798#0.20 951358798#0.23 951358798#0.24 951358798#0.26 951358798#0.29 951358798#0.41 951358798#0.43 951358798#0.44 951358798#0.46 951358798#0.48 951358798#0.51 951358798#0.55 951358798#1 951358798#1.17 44740927#6 -44740987 44740985#1 44740983#1 44740927#9 44739163#18 44739163#19 -44740919#1 44740931#1 -313316091#1 -313316091#1.32 -313316091#0 -313316091#0.27 -313316091#0.72 -313316091#0.80 45340579#18 45340579#18.164 45340579#19 45340579#19.12 45340579#19.84 909019791#0 -909019790#1 -909019789#2 -909019789#1 44740916#7 44740916#8 -668599377#1 -668599377#1.15 -668599377#0 -668599377#0.24 -44740934#3 -44740934#3.33 -909019780#1 -909019780#0 668599376#1 668599376#2 668599376#2.6 -668599375#0 -909019783 -909019783.98 -971495601#3 -44740910#8 -671410531#2 -671410531#1 -671410531#1.53 -671410531#1.57 -671410531#1.63 671410530 -909019784#1 -909019784#1.47 -909019784#0 313316100#8 313316100#8.72 -908560901#22 -908560901#22.11 -908560901#22.23 -908560901#21 -908560901#21.18 -908560901#21.74 -908560901#20 -908560901#20.10 -908560901#20.61 -908560901#20.115 -908560901#19 -908560901#19.77 -908560901#19.104 -896786299#0 -896786298 -45378665#19 896786296#12 896786296#12.21 896786296#12.68 -951347815 -951347815.27 -951347815.31 -951347815.34 -951347815.36 -951347815.40 -951347815.45 -951347815.55 -951347815.65 896786295#1 896786295#1.16 951347813#0 951347813#0.59 -951433464 -951347814#0 -951347814#0.2 -951347814#0.5 -909024259#0 -896786295#4 -951346847 -951346847.28 -951346847.37 -951346847.45 -951346847.52 -951346847.78 -951346847.86 -951346847.93 -951346847.99 -951346847.106 -951346847.111 -951346847.116 896786282#2 896786282#2.23 896786282#2.28 896786282#2.32 896786273#0 896786273#1 896786273#2 896786273#2.36 896786273#3 896786273#3.22 896786279#2 896786279#2.21 896786269#5 896786269#6 896786269#6.25 896786269#6.71 -896786275#0 -896786275#0.11 896786268#2 896786268#2.6 896786268#3 -896786295#12 -896786295#12.21 909024280#0 -909024278#0 -909024278#0.26 -909024278#0.99 -909024279#0 -909024279#0.11 896786295#9 -896786271#2 -896786271#2.29 896786270#0 -909024281 -909024281.42 896786275#2 896786275#2.27 -896786271#0 896786272#1 -896786281#2 -896786281#1 896786280#1 896786280#2 896786280#3 909024260 909024260.21 909024260.64 909024260.121 -951346848#0 -951346848#0.9 -951346848#0.18 -951346848#0.28 -951346848#0.36 -909024276#1 -909024276#0 -909024276#0.55 896786296#18 896786296#18.4 896786296#18.17 -44739144#24 903953326#0 903953326#1 -903953325#3 909778546#0 909778546#1 -951361609 903953324#1 903953324#1.22 -44739144#18 -44739144#16 -44739144#15 -909024265#3 952002225#1 -877396860#21 -904371477 -904371477.66 -904371478#1 -904371478#1.6 904371476 904371475#1 -904371474#3 -904371474#2 -904371472#1 -904371472#1.50 -904371472#0 904286388#3 904286388#3.27 904286388#4 904286388#4.32 -904286389#4 -904286389#4.12 951992350#1 951992350#2 951992350#2.32 951992350#2.34 951992350#2.37 951992350#2.40 -904371481#0 -904371481#0.3 -904371482#0 -904371482#0.24 -904371482#0.73 951973452#0 951973452#1 951973454 951973453#1 -951973451#1 -951973451#0 671191683#1 671191683#1.7 671191683#1.21 671191683#3 671191683#4 -904371473#4 -904371473#3 -904371473#1 -904371473#1.10 -904371473#0 -904371474#0 -904371474#0.12 904286386#3 904286386#3.9 904286386#3.31 904286386#4 904286386#4.19 -904286385#15 -904286385#15.42 904286384#0 904286384#1 904286384#1.16 904286384#2 904286384#2.14 877396860#15 877396860#16 909024290 909024290.75 909024293#1 909024293#1.20 909024293#1.34 -904286386#0 896786294#0 896786294#0.33 896786276 896786276.34 896786278#0 896786278#0.39 896786278#1 896786267#2 -904286382#4 -904286382#4.34 -904286382#3 -904286378#1 -904286378#0 904286380#3 904286380#3.65 877398366#15 877398366#15.16 -896786290#5 -896786290#4 -896786290#4.18 -896786290#3 -896786290#2 -896786290#1 -896786290#1.17 -896786290#0 -904286385#12 951992355 904286380#0 904286380#1 904286380#1.17 904286380#1.44 -877396860#12 -904286382#1 -904286382#0 -904286374 904286375#3 671191680#11 671191680#13 -877396860#10 -896786284#1 -896786284#0 -896786284#0.50 877396033#2 896786285 896786285.95 -904371462#2 904371460#0 904371460#0.34 904371460#1 904371459 904371459.11 904371459.27 -877398366#6 -904371457 904371458#0 904371458#0.18 -904371461 -904371461.26 -904371461.30 -904371461.33 -904371461.36 -904371461.66 -904371461.112 -877396860#6 904371465#0 904371465#1 904371465#2 904371467#2 904371467#2.64 904371467#2.129 -671191680#8 -671191680#6 -896786326#1 -896786326#0 -896786328#0 -896786328#0.177 877395784#21 877395784#21.6 877395784#22 877395784#22.56 904371492#0 904371492#0.68 -904371493#5 904286385#2 904286385#3 904286385#4 904371489#0 671191682#0 671191682#1 671191682#2 904371493#3 -671191681#2 -951973437#1 -951973437#0 951973436#2 -671191681#0 -904286385#0 -952002224#7 -952002224#7.17 -952002224#7.71 -952002224#6 951973432#0 -951951638#7 -951951638#5 -951973430#0 -952002224#4 -952002224#4.27 951946798#0 -951951638#3 952000398 951951639#13 951951639#14 951951639#15 896786337#6 896786337#7 896786337#8 896786337#8.8 -951887683 -951887684 -951887682#6 -951887682#5 -951887682#4 -951887682#3 -951887682#2 -951887682#2.37 -951887682#1 -951887682#1.2 -951887682#1.5 -951887682#0 -951961243 -951961242#0 951961240#3 -951887679#2 -951887679#1 -951887679#1.32 -951887679#1.35 -951887679#1.38 -951887679#1.41 -951887679#0 -951887678#0 951887674#3 951887674#3.83 951887674#3.90 951887674#3.96 951887674#3.101 951887674#3.111 951887674#3.114 951887674#3.118 951887700#8 951887700#8.5 951887700#8.7 951887700#8.11 951887700#10 951887700#11 951961240#0 951961240#0.54 951961240#0.57 951961240#0.59 951961240#0.62 -951961245 951891772#0 -951891773 -951891771#0"/>
</vehicle>
<vehicle id = "veh4" type= "veh_passenger" depart="3605" >
<route edges =" 45342801#5 45342801#5.32 902433317#3 902433317#4 902433317#6 -951368597 45342799#26 951368596 902433317#8 902433317#8.29 902433317#9 951368594#0 951368594#1 951368594#2 972507120#3 -951366780#1 -951366780#1.2 -951366780#1.41 951366779#0 951366779#1 45342812#1 45342811#2 45342811#2.66 -45344273#22 -45344273#22.6 -45344273#22.18 -45344273#22.35 -45344273#21 -45344273#21.28 -45344273#19 -45344273#18 -45344273#18.17 45344321#0 951404485 45344322#1 45344322#2 -897252876#5 -897252876#5.20 45344320#2 -45344329#7 -45344329#6 -45344329#5 -45344329#4 902433295#3 45344330#0 45344330#1 45344333#1 45344333#2 -45344331#1 -45344331#0 -45344326#2 -45344326#2.15 -902433295#5 951381433 951381433.13 951381433.15 951381433.17 951381433.18 951381433.19 951381433.23 951381433.25 951381433.26 951381433.27 951381433.29 951381433.31 897172091#5 -951404496 -951404496.25 -951404496.29 -951404496.31 -951404496.34 -951404496.36 897252883#1 45344297#0 45344297#0.22 45344335#0 45344335#0.43 -950235689#2 950400194#2 -699875131#2 45344335#2 45344335#3 45344335#4 45344335#5 45344335#7 -45344320#6 -45344320#6.26 950455054 -45344336#8 -45344336#8.20 -45344336#8.27 -45344336#8.33 -45344336#7 -45344336#7.6 950235692#0 -950235694#2 -950235694#1 -950235695#2 -950235695#1 950235697#3 -950235700#1 -950235700#0 -700254524#1 700254523 -700254525#0 -45344272#3 -45344272#3.16 -45344272#3.30 -45344272#3.79 -45344336#3 -45344336#2 950553578#1 950553577#0 950553577#0.25 950553577#1 950553577#1.2 950553577#1.9 950553577#1.16 950553577#1.22 950553577#1.27 950553577#1.34 950553577#1.44 950553577#2 -45344282#1 -950641816#13 -950641816#13.116 -950238188#4 950641814 -950641815#0 -950641815#0.6 -950641816#11 -950641816#10 -950641816#9 -950641816#8 -950641816#7 -950872165#4 -950641807#1 -950641807#1.20 -950641807#1.25 -950641807#1.30 -950641807#1.33 -950641807#1.38 -950641807#1.42 -950641807#1.47 950235729#2 -950235733#2 -950235733#2.11 -950235733#2.21 -950235733#2.34 -950235733#2.46 950641812#3 950641809#0 -950641810 -950641810.14 -950641810.18 -950641810.22 -950641810.27 950235732#1 -950235733#0 -950641813#1 -950641813#1.14 -950641813#1.27 -950641813#1.43 -950641813#1.59 -950641813#0 -950641813#0.15 -950641813#0.21 -950641813#0.27 -950241847#5 -950241847#5.4 -950241847#5.12 -950241847#5.18 -950241847#5.23 -950553571 -950553571.17 -950553571.20 -950553571.22 -950553571.30 -950553571.32 -950553571.34 -950553571.44 -950553571.47 -950553571.50 950241847#7 950241847#7.10 -950238188#2 -950238188#0 45344284#8 45344284#9 45344284#10 45344284#11 950241823#4 950241823#5 -950241818#2 950929121#0 950929121#0.14 950929121#0.18 950929121#0.21 950929121#0.26 950241819#0 951014869 -950241821#12 -950241821#11 -950241821#11.8 -950241821#11.12 -950241821#10 -950241821#10.5 950241819#3 950241819#4 950241819#5 -951014855#1 -951014855#1.18 -951014855#1.42 -951014855#0 45344271#2 45344271#2.26 -950241848#5 -950241848#5.35 950241847#0 -950241859#1 -951043905#1 -951043905#1.58 -951043905#1.61 -951043905#1.65 -951043905#1.69 -951043905#0 -950241861#1 950241857#0 950241863 950241863.49 950241863.52 950241863.55 950241857#2 -950241848#0 -45344282#5 -45344282#5.52 -45344282#5.87 -45344281#2 950241866#9 -45344284#5 -45344284#4 -950238192#4 -45344281#0 45344280#12 45344284#0 -950553572 -950238193#0 45344280#14 45344280#14.13 45344280#15 45344283#5 -950553582#2 -950553582#2.27 950553580#0 950553579 950553579.70 950553579.75 950553579.82 -950553581#0 -950553581#0.8 -950553581#0.15 -950553582#0 -950553582#0.6 -950233989#0 45344283#7 45344283#7.36 45344283#8 -950233988#0 45344272#5 45344272#6 950389245 950389245.38 950389245.44 950389245.50 950389245.59 950389249#2 950389249#2.19 950389249#3 950389249#3.3 950389249#3.6 950389249#3.24 950389249#4 950389249#4.2 950389249#4.6 897252850#1 897252850#1.24 -950389247#2 -950389247#2.20 -950389247#2.28 -950389247#1 -950389247#1.13 -951441775 -951441775.15 -951441775.28 -951441775.39 -951441775.47 -951441775.60 951381432#1 951381432#1.2 951381432#1.5 951381432#1.8 -897252850#3 -897252849 -951370962 -951370962.12 -951370962.22 -951370962.34 -951370962.43 -951370962.49 -951370962.56 -45344304#2 -45344304#2.28 897252853 -897252852#1 -897252852#1.36 897252851 -45344304#0 45344272#10 45344272#10.38 45344272#11 45344272#11.35 951384610#0 951404495 702632122#0 702632122#0.6 702632122#0.10 702632122#0.14 702632122#0.18 702632122#0.49 702632122#0.55 702632122#0.60 702632122#0.66 702632122#0.72 702632122#0.90 702632122#0.93 702632122#0.96 702632122#0.98 702632122#0.100 702632122#0.108 702632122#0.114 702632122#0.117 702632122#0.121 702632122#0.128 702632122#1 702632122#1.17 702632122#1.20 702632122#1.23 702632122#1.27 702632122#1.31 702632122#1.38 -951384601#1 951384600 702632123#3 702632122#4 702632122#4.5 702632122#4.9 702632122#4.12 702632122#4.16 702632122#4.20 702632122#4.25 702632122#4.41 -45344286#6 -45344286#6.52 -45344286#4 -45344286#4.11 -45344286#3 -45344286#3.9 -45344286#3.30 -45344286#3.45 -45344286#2 -45344286#2.12 -45344286#2.42 -45344286#1 -45344286#1.19 -45344286#0 -45344307 -951441961 971495602#10 971495602#10.24 971495602#10.91 971495602#10.136 971495602#10.205 971495602#10.291 971495602#10.337 971495602#10.378 971495602#11 971495602#12 971495602#12.26 971495602#12.77 951442813 951442812#0 -896786335#50 -896786335#49 -896786335#48 -896786335#48.15 -896786335#47 -896786335#46 -896786335#44 -896786335#44.9 -896786335#44.71 -896786335#43 -896786335#42 -896786335#42.22 896892977#0 896892977#0.14 896892977#1 896892977#1.45 896892977#1.56 -908869250#4 -908869250#4.38 -908869237 -908869237.57 -908869237.85 -908869237.97 -896786335#40 -896892982#2 -896892982#1 -951349921#5 -951349921#5.15 -951349921#5.17 -951349921#5.20 -951349921#5.23 -951349921#5.25 -951349921#5.32 -951349921#5.34 -951349921#5.37 -951349921#5.39 -951349921#5.42 951349920 951349920.8 951349920.12 951349920.15 951349920.20 951349920.60 951349920.65 951349920.69 951349920.73 951349920.77 -896786335#37 -896786335#36 -896786335#34 -908869252#3 -908869252#3.7 -908869252#3.13 -908869252#3.35 -908869252#3.57 -908869252#3.88 -908869252#3.90 -908869252#3.94 -908869241#1 -908869241#1.27 -908869240#0 -908869240#0.1 -908869240#0.4 -908869240#0.7 -908869252#0 -908869252#0.17 -896786335#30 45378649#0 45378649#0.36 45378649#1 951354763#0 951354763#1 -951358824#0 -951358824#0.36 -951358824#0.42 -951358824#0.47 -951358824#0.59 -951358824#0.67 -951358824#0.72 -951358824#0.78 -896786335#27 -896786335#27.19 951358823 951358823.10 951358823.15 951358823.20 951358823.26 951354763#3 951995494#0 -951995491#2 -951995491#1 -951995491#0 896786266#13 896786266#13.14 -896893013#7 -896893013#7.29 -896893013#7.87 -896893013#6 -896893013#6.15 -896893013#5 -896893013#5.11 -896893013#5.13 896893005#0 896893005#0.7 896893005#0.25 896893005#0.69 896893005#1 -877388728#10 -877388728#10.145 -896892998#4 896892999 896892999.64 -896786307#7 -896786307#7.13 -896893000 -896893000.18 -896893000.45 896786308#4 896786304#0 896786304#0.56 -877388976#1 -877388976#1.14 -877388976#1.34 -877388976#1.74 -896786308#2 -896786308#2.11 -896786305#0 -896786305#0.72 -896786305#0.81 -896786309#0 896786304#2 896786300#0 896786300#0.23 896893013#0 896893013#0.10 896893013#0.59 896893013#1 896893013#1.26 896893010 896893010.28 896893010.97 896893012#6 896893012#6.21 896893011#1 -909024249 -909024249.19 -909024249.70 909024250#1 909024250#2 909024250#4 909024250#5 909024250#6 909024239#0 909024239#1 909024239#1.17 -909024237#1 -909024237#1.34 -909024237#1.71 -909024237#1.74 -909024237#1.78 -909024237#1.82 877398366#1 877398366#1.15 877398366#2 877398366#2.36 -951983585 -951975994 896786325#3 -896786323#0 -896786323#0.137 -896786323#0.139 -896786323#0.141 -896786324#0 -896786324#0.19 -896786324#0.132 -896786324#0.177 951951639#0 951951639#1 951946802 951946795#2 951946795#3 -951946800#1 951951639#7 951951639#8 951946799 951946795#6 -951946798#2 951951639#10 951946797 951946795#9 951946795#10 951946795#11 951946795#11.34 951946795#11.40 951946795#11.45 896786337#10 896786337#10.21 -951887700#20 -951887700#19 -951887700#18 -951887690 -951887688#1 951887689 -951887700#16 -951961233#4 -951961233#3 -951961233#3.25 -951961233#3.30 -951961233#3.34 -951961233#3.39 -951878265#2 -951878265#1 -951878266#5 -951878266#5.22 -951878266#5.29 -951878266#5.37 -951878266#4 -951878266#4.37 -951878266#2 -951878266#1 -951878266#1.39 -951878266#1.47"/>
</vehicle>
<vehicle id = "veh5" type= "veh_passenger" depart="3605" >
<route edges =" 951370989 951370989.40 951370989.47 951370989.53 951370989.56 951370989.62 951370989.64 951370989.67 -902433320#1 -902433320#0 902433321#2 -45342799#20 -45342797#4 -951368600#1 -951368603#1 951368601#0 951368601#1 -45342797#2 -45342797#1 -45342797#0 -45342834#1 -45342834#0 44740902#8 -45342798#6 -45342798#5 -45342798#4 -45342837 45342836#2 45342809#6 45342809#7 45342809#8 -44740885#9 -44740885#9.34 -45342803#4 45342821#0 -45342822#2 -45342822#1 -45342822#0 45342831#3 45342809#12 45342823#0 -45342833#4 -45342833#3 45342824#1 45342824#2 45342824#3 45342823#2 45342828#1 45342828#1.100 -45344273#6 -45344273#6.40 -45344273#6.59 -951384598#3 -951384598#2 -951404491 -951404491.16 -951404491.28 -951404491.40 -951404491.51 -951384599#0 700249213#9 700249212#0 700249212#1 700249212#3 45342808#9 45342808#10 951370965#0 951370965#0.26 951370965#0.30 951370965#0.33 951370965#0.37 951370965#0.40 951370965#1 951370965#1.28 951370965#1.49 45344314#2 700249213#0 951439195 897252867#1 897252867#1.15 897252864#0 897252864#1 897252864#3 -897252871 -897252870 -45344310#2 -45344310#1 951404484#0 951404484#0.58 951404484#0.86 951404484#0.91 951404484#0.94 -951404476 -951404476.16 -951404476.32 -951404476.50 -951404476.59 -951404476.68 -951404476.84 -951404476.93 -951404476.101 -951404476.106 -951404476.113 971495602#7 971495602#7.32 971495602#7.56 971495602#8 971495602#8.24 971495602#8.86 45340579#6 45340579#7 45340579#7.32 45340579#7.82 45340579#7.134 45340579#7.159 45340579#7.185 -908560867#2 -908560867#2.13 -908560867#2.25 -951404468#1 -951404468#1.18 -951404468#1.33 -951404468#1.62 -951404468#1.64 -951404468#1.65 -951404468#1.66 -951404468#1.67 -951404468#1.69 -951404468#1.79 -951404468#1.80 -951404468#1.83 -951404468#1.85 -951404468#1.88 -951404468#1.96 -951404468#1.98 -951404468#1.99 -951404468#1.101 -951404468#1.102 -951404468#1.107 -951404468#1.112 -951404468#1.119 -951404468#1.121 -951404468#1.122 -951404468#1.124 -951404468#1.126 -951404468#1.129 -951404468#1.131 -951404468#1.133 -951404468#1.135 -951404468#1.138 -951404468#1.141 951404467#0 951404467#0.8 951404467#0.12 951404467#0.16 951404467#0.31 951404467#0.34 951404467#1 951404467#1.1 951404467#1.5 951404467#1.9 951404467#1.15 -908560887#7 -908560887#7.10 -908560887#7.18 -908560887#7.26 -908560887#7.31 -908560887#7.34 -908560887#7.37 -951435494 -951435494.8 -951435494.19 -951435494.25 -951435494.33 -951435494.43 -951435494.50 -951435494.55 -951435494.60 -951435494.65 313316104#5 313316104#5.24 313316104#5.44 313316104#5.58 -45378650#5 -45378650#5.11 45378646#0 45378646#0.20 45378646#1 -908846596#4 45378645#1 45378645#1.23 45378645#1.76 45378647#3 45378646#3 -908846598#1 -908846598#1.20 -908846598#1.40 -908846598#1.44 -908846598#1.67 -908846598#1.96 -908846598#1.126 -908846598#0 -908846598#0.31 908560901#2 908560901#2.40 908560901#3 908560901#4 908560901#4.8 908560901#5 908560901#5.28 908560901#5.87 45378647#0 45378647#0.9 45378647#0.49 908846595#0 908846595#0.61 908846594#0 908846594#1 908846594#1.37 -908846596#0 -908846596#0.31 908560901#7 908560901#8 908560901#8.23 908560901#8.56 -313316104#0 -313316082 -45378649#12 -45378649#11 -45378649#11.22 -45378649#10 -45378649#10.20 -45378649#9 -45378649#9.7 951355297#0 -951355296 951354759#1 951354759#1.10 951354759#3 951354759#4 951354759#4.40 -896786262#4 -896786262#4.31 -951355295 951354762#1 951354762#1.1 951354762#1.3 951354762#1.20 -896786264 -896786264.69 -896786264.122 -896786265#7 -896786265#7.11 -896786265#6 -896786265#6.26 896786253 896786253.47 896786253.111 -896786263#2 -896786263#2.6 951354764#1 896786262#1 -896786258#4 896786257#0 896786257#0.74 896786257#0.128 896786257#0.138 896786257#1 896786266#5 -896786260#0 -896786260#0.52 896786257#4 909024248 909024248.50 -45378665#3 -45378665#3.29 -45378665#3.50 896786293#3 896786293#3.29 896786293#4 896786257#7 896786257#7.17 896786257#7.37 896786257#7.44 896786257#7.49 896786257#7.54 -45378665#1 -45378665#0 -45378665#0.39 -45378665#0.75 -896786300#3 -896786300#3.27 -896893012#1 -896893012#0 -896893012#0.11 896786303#5 896786303#5.27 896786303#5.100 896786303#5.124 -896786301 -896786301.70 -896786303#3 896786302#0 896786302#0.18 896786302#0.77 896786302#1 896786304#6 -951983587#6 -951983587#5 -951983621#1 -951983621#1.8 -951983621#1.12 -951983620#0 951983592#1 951983592#3 951983592#3.4 951983592#3.8 951983592#3.24 951983592#3.30 -951988579 951988578#1 -951988576#1 -951988574#0 896786310#6 896786310#6.17 896786310#7 896786310#7.4 896786310#7.13 896786310#7.40 896786310#7.52 896786310#7.60 896786310#7.68 896786310#7.74 896786310#8 896786310#8.5 896786310#9 896786310#9.40 896786310#9.54 896786310#9.61 -951983616#2 951983617#0 951983617#0.43 877398739#1 877398739#2 877398739#2.30 877398739#3 -951983586#1 -951983586#0 896786303#1 896786303#1.37 951983587#9 877398366#0 877398366#0.11 -909024237#0 -951983583#0 -951983583#0.24 -951983583#0.28 -951983583#0.32 -951983583#0.38 -877396860#0 -877396860#0.8 -877396860#0.28 -896786311#13 -896786311#13.20 -896786311#12 -896786311#12.40 -896786311#11 -896786311#11.60 -896786311#10 951983591 -951983587#0 -951983587#0.39 -951983587#0.45 -951983587#0.51 -951983587#0.56 -896786311#8 -896786311#7 -896786311#6 -896786311#6.24 951983602 951930672#1 951930673#4 -951930674 -951930674.86 -951930674.89 -951930674.93 -951930674.97 -951930673#1 -951930673#0 951976009#0 951976009#1 -896786335#7 951976007 -951976006#1 -951976006#0 896786315#4 896786319#4 -896786317#1 -896786317#1.28 -896786317#0 896786316#3 896786320#0 -877396172#5 -877396172#3 951976013#0 951930665#0 951930667 -951930666#0 -951930666#0.43 -951930666#0.46 -951930666#0.48 -951930666#0.51 951930665#2 951930664#4 -877396172#0 -877396172#0.15 896786313#3 896786313#3.51 896786313#3.88 896786313#3.110 896786313#3.151 896786313#3.164 896786313#3.186 896786313#3.223 896786313#3.237 896786313#3.246 896786313#3.253 -896786312#1 -896786312#1.17 -896786312#1.24 -896786312#0 -896786312#0.11 -896786312#0.35 -896786312#0.60 -896786312#0.135 -896786311#2 -951930661#4 -951930661#3 -951930661#3.14 -951930661#2 951930662#0 896786312#3 896786312#3.13 877395784#8 877395784#8.44 877395784#9 951946815#0 -951946826 -951946825#0 877395784#11 877395784#11.34 951930663#0 951930662#2 -951976000#2 -951976000#2.3 -951976000#2.6 -951976000#2.8 -951976000#2.12 951976002 -951976001#0 -896786335#1 -896786335#1.14 951976000#0 -951975999 -877395784#14 -877395784#14.13 -877395784#13 -877395784#13.47 -951946824 -951946822 951946821#2 -951946820#0 -951946819#0 -951946816#5 -951946816#5.8 -951946816#5.11 -951946816#5.14 -951946816#5.18 -951946816#4 -951946816#2 951946827 951946827.47 951946827.51 951946827.55 951946827.59 -951946789#2 -951946787#6 -951946787#4 -951946787#3 -951946787#2 -951946787#0 -896786337#17 -896786337#17.3 -896786337#16 -951946812#2 951946814#0 -951946815#5 951946816#0 951946810#0 951946810#1 951946810#2 -896786337#14 -896786337#14.40 -896786337#14.111 -952365020 -952365021 -951878231#2 951868619#0 951868620#0 -951868611#1 -951878231#0 951951645 -951951643#3 -951951643#2 -951951643#1 -951951643#0 -951878263#7 -951951649 951951648#1 -951951642#0 -951878263#5 -951878269#15 -951891772#2 -951891774 951891771#2 951878270#2 877401978#0 877401978#1 951878266#0"/>
</vehicle>
<vehicle id = "veh6" type= "veh_passenger" depart="7210" >
<route edges =" -45342801#4 45342799#23 672813677#0 672813677#0.22 672813677#0.51 672813677#1 672813677#1.14 672813677#1.27 672813677#2 672813677#4 672813677#4.8 -903341082#0 -903341082#0.45 -45342801#2 -45342801#1 -45342801#0 -45342798#1 45342840#0 -45342810#2 -45342810#1 -45342810#0 -45342809#4 45342798#3 -45342837 -45342836#0 -45342818#1 -45342817#2 -45342817#1 45342816#0 951370984#1 45342813#2 -45342814#1 44740902#11 44740902#12 44740902#13 44740957#4 44740957#5 44740901#3 44740901#4 44740901#5 -44740891#4 974189220#1 -44740896#2 -951417474 44740957#8 -44740895#3 -44740895#2 -44740895#2.69 44740972#0 44740972#1 44740969#5 -974189220#4 951417475#1 -671399049#1 -671399049#0 -671399051#0 -44740942#1 -44740901#0 -313316089 -951438761 44740929#6 44740929#7 44740929#8 -44740960#1 44740962#0 44740962#1 44740962#2 44740930#16 44740967#3 -44740929#0 -44740930#11 -44740922#7 -44740989#1 44740923#1 44740926#1 44740926#2 -951358804 -44740955#1 -44740955#0 -44740925#2 44740926#5 44739167#11 44740927#14 44740927#15 44740927#16 44740927#17 -44740922#3 44740953#0 44740953#2 44740940#0 44740945#0 44740945#1 44739167#14 44739167#15 44739167#15.29 -313316091#6 45378684#0 45378684#0.22 45378684#0.71 -671178935 -45378685#1 45378654#0 45378654#1 45378657#4 -44739163#20 -44740949#2 -44740953#7 44740952 -44740951#0 44740953#5 951358801 44740927#11 44740927#12 -44740928#2 -44740928#1 -44740928#0 -44740928#0.75 -44740930#6 -44740930#5 44739156#14 44739156#15 44740985#0 44740985#1 -44740983#0 44740981#1 44739163#16 44739163#17 -44740927#9 -951358800#1 -951358800#0 -44740918#1 -44740918#0 44740920#6 -951358792 -951358792.26 -951358792.42 -951358792.53 -951358792.66 896892969#18 45340579#18 45340579#18.164 45340579#19 45340579#19.12 45340579#19.84 909019791#0 -909019790#1 -909019789#2 909019788 909019791#2 44740916#6 -909019789#0 -909019789#0.59 -909019789#0.61 -909019789#0.64 -909019789#0.68 44740933#1 909019787 44740932#5 44740910#6 909019782 909019781#1 -44740932#3 -44740932#2 -44740934#4 668599377#0 668599377#0.33 668599377#1 668599377#1.37 44740916#9 44740916#9.64 44740916#11 44740916#12 -909019766#1 -909019766#1.6 -909019766#1.14 -909019766#1.30 -909019766#1.52 909019765 909019768#1 909019767#0 909019767#0.42 909019767#1 909019767#1.24 909019767#1.35 -971495601#5 -45378660#1 -45378660#1.21 -45378660#1.52 -45378660#1.88 -45378660#1.126 -908560900#3 951346855#0 951346855#0.40 951346855#0.55 951346855#1 951346855#1.8 951346855#1.24 951346855#1.44 -44740910#8 -671410531#2 -909019784#2 -671410530 -671410531#0 -909019784#0 313316100#8 313316100#8.72 -971495601#0 -313316086 -44739144#26 -903953334#9 -903953334#9.24 -903953334#9.50 -903953334#9.58 -903953327 -903953327.7 -903953327.18 -903953327.71 903953326#1 -903953325#3 -903953325#2 -903953325#2.18 -903953325#1 903953324#0 951361609 -909778546#1 951346849 -44739144#20 -44739144#19 -44739144#19.14 -44739144#18 671752228#0 -671960103#1 -951346850 -44739144#15 671960104#0 671960104#1 671960104#2 671960104#3 671960104#4 671752228#2 671752228#3 -671960101#14 -671960101#13 -671960101#12 -671960101#10 44740913#4 44740913#5 -44739144#12 -44739144#11 -44739144#10 -904371478#2 -904371478#2.24 904371477 904371477.56 -877396860#20 -877396860#20.1 896786289#0 896786289#0.42 909024265#0 909024265#1 909024265#2 909024265#2.13 -952002225#0 -877398366#20 -877398366#19 -877398366#18 -909024294#1 909024293#0 909024293#1 909024293#1.20 909024293#1.34 -904286386#0 896786294#0 896786294#0.33 896786276 896786276.34 -896786277#0 -896786290#5 -909024293#3 -909024292 -909024292.58 -896786290#3 -877396860#13 904286380#2 904286380#3 904286380#3.65 -877398366#14 -877398366#14.72 -877398366#13 -671191680#14 -671191680#13 -671191680#11 -904286375#3 -904286375#2 -904286375#2.19 904286373#0 -951975997 -671191680#8 -671191680#6 -896786326#1 -896786327#1 -896786327#1.48 -896786327#1.55 -896786327#1.60 -896786327#1.64 -896786327#1.68 -896786327#1.74 -896786327#1.124 -896786327#1.170 -896786327#1.205 -896786327#1.211 -896786327#0 877395784#22 877395784#22.56 877395784#23 -952002224#7 -952002224#7.17 -952002224#7.71 -951973426#2 -951951638#8 -951951638#7 951946800#0 951951639#7 951951639#8 951951639#9 -951946798#1 -951946798#0 -952002224#3 -952002224#3.30 -952002224#3.48 -952002224#3.80 -952002224#2 -952002224#2.36 -952002224#1 896786337#4 951951638#0 951951638#1 951951638#2 952000398 951951639#13 -951946794#0 951946792#1 896786337#8 896786337#8.8 -951887683 -951887684 -951887682#6 -951887682#5 -951887682#4 -951887682#3 951887692 -951887691#0 -951887682#0 -951887700#14 -951961240#3 -951961240#1 -951961245 951891772#0 -951891773 -951891771#0"/>
</vehicle>
<vehicle id = "veh7" type= "veh_passenger" depart="7210" >
<route edges =" 45342801#5 45342801#5.32 902433317#3 951421968#0 951421968#1 951421968#1.20 -951381446#1 951368598#1 -45344271#32 951368595#0 951368595#1 951368595#1.17 951368595#1.34 -902433317#7 -951368597 45342799#26 45342799#27 45342799#27.15 45342799#27.20 45342799#27.25 45342799#27.36 -951370987 -951370987.52 -951370987.54 -951370987.56 -951370987.57 -951370987.59 -951370987.62 -903341083#2 -903341083#1 -951368605#2 -951368605#1 -951368605#0 45342811#1 45342811#2 45342811#2.66 45344273#23 45344273#23.11 45344273#24 -897252873#2 951379889 951379889.24 951379889.29 951379889.37 951379889.42 951379889.48 -951379890#0 -951379890#0.11 -951379890#0.26 -951379890#0.32 -951379890#0.35 -951379890#0.37 -951379890#0.41 -951379890#0.82 -951379890#0.84 -951379890#0.86 -951379890#0.88 -951379890#0.89 -951379890#0.91 -951379890#0.93 45344320#1 45344320#2 45344320#3 45344320#4 -897172091#13 -897172091#12 -897172091#10 -897172091#9 699875131#0 699875130#0 699875130#0.20 699875130#1 45344297#0 45344297#0.22 45344297#2 45344297#2.7 45344297#2.17 45344297#2.22 45344297#2.28 45344297#2.54 45344297#2.118 950399187#0 950399187#1 700254525#5 950400195#0 950400193#0 950400192#0 950400192#1 699875131#4 700254525#9 700254525#11 -950400191 -950400191.5 -950400191.10 -950400191.16 -950400191.25 -950235691#0 -950235691#0.4 950235690#1 45344335#4 45344335#5 45344335#7 45344335#8 -45344336#7 -45344336#7.6 950235692#0 950235694#3 950235694#4 950235694#4.8 950235694#4.19 950235694#4.29 950235694#4.38 950235694#4.48 950235694#4.103 950235694#4.115 950235694#4.119 950235694#4.123 950235694#4.127 -950455050 -950455050.25 -950455050.33 -950455050.39 -950455050.53 -950455050.56 -950455050.59 -950455050.61 -950455050.72 -950455050.74 -950455050.76 -950455050.78 -950455051#0 -950455051#0.3 -950455051#0.18 -950455051#0.33 950455048#1 950455048#1.12 950455048#1.23 950455048#1.41 950455048#3 950455048#3.5 -950235705#1 -950235705#1.35 -950235705#1.46 -950235705#1.61 -950235705#1.74 -950235705#1.98 -950235705#0 950238177#1 950238177#1.12 -950235699#5 950235703#0 950235703#0.10 950235703#0.22 950235703#0.33 950235703#0.48 950235703#0.64 950235703#0.87 950235703#0.105 950455053 950235692#2 950235692#3 -950235699#3 950235701 45344273#38 45344273#38.38 45344273#38.50 45344273#38.62 -950235700#3 950235699#0 950235695#0 -950235697#2 950732875#0 -950235702 950235695#2 950235695#3 -45344336#5 -45344336#4 -45344336#3 -45344336#2 -950553578#0 45344280#15 45344283#5 45344283#6 45344283#6.72 45344283#6.89 45344283#6.131 45344283#7 45344283#7.36 950318420 950318420.15 950318420.26 950318420.37 950318420.53 950318420.71 950318420.85 950318420.94 -950318421#0 -950318421#0.10 -950318421#0.20 -950318421#0.30 -950318421#0.39 -700278833#4 -950233988#2 -950233988#2.21 -950233988#2.33 -950233988#1 -950233988#1.32 -950233988#0 45344272#5 45344272#6 45344272#7 45344272#7.21 45344272#7.41 45344272#8 45344272#8.32 897252852#0 897252851 -45344304#0 45344272#10 45344272#10.38 45344272#11 45344272#11.35 45344272#12 45344272#13 45344272#13.4 45344272#13.35 45344298 896892974 971495602#11 971495602#12 971495602#12.26 971495602#12.77 951442813 951442812#0 -896786335#50 -896892981#13 -896892981#13.5 -896892981#13.13 -896892981#12 951354780 951354780.16 951354780.26 -896786335#47 -896786335#46 951358828 951358828.11 951358828.13 951358828.16 951358828.19 951358828.22 951358828.26 951358828.29 951358828.32 951358828.42 951358828.46 951358828.50 951358828.53 951358828.57 -896786247#8 -896786247#7 -896786247#7.2 -896786247#6 -896786247#6.66 -896786247#6.103 -896892976#1 -896892976#1.4 -896892977#3 -896892977#3.15 -896892977#3.37 -896892977#2 908869250#5 -908869248#1 -908869248#1.4 -908869248#1.6 -908869248#1.9 -908869248#1.11 -908869248#1.19 -951358827#2 -951358826 -951358826.10 -951358826.13 -951358826.16 -951358826.19 -951358826.36 -951358826.40 -951358826.44 -951358826.49 -896786335#42 -896786335#42.22 896892983#0 896892983#0.10 896892983#1 896892983#1.19 -951421976 896892982#2 908869238 908869238.11 -908869250#2 -908869250#2.29 -908869250#2.76 -908869250#2.143 -908869250#1 908869234#0 908869234#0.20 -896786247#0 -896786247#0.33 -45378649#11 -45378649#11.22 -45378649#10 -45378649#10.20 -951355292 -951355298#1 -951355298#1.5 -951355298#1.10 -951355297#1 -951355297#0 896786248#0 896786248#0.6 896786248#0.16 896786248#0.93 896786248#0.127 896786248#0.165 896786248#0.179 896786248#0.211 896786248#1 896786248#1.30 896786248#1.43 -951349917#1 -951349917#1.14 -951349917#1.29 -951349917#1.41 -951349917#1.59 -951349918 -951354772#1 -951354772#1.39 -951354772#1.50 -951354772#1.59 -951354772#0 -951354772#0.6 951354773#2 951354773#2.8 951354773#2.14 951354773#2.38 951354773#2.61 951354773#2.86 -951354771#1 -951355290 -951355290.28 -951355290.30 -951355290.31 -951355290.32 -951355290.33 896893028#4 896893028#4.8 896893028#5 45378649#0 45378649#0.36 -951354765#1 -951354765#1.60 -951354765#1.64 -951354765#1.67 -951354765#1.70 -951354765#1.74 -951354765#1.99 951354763#1 -951358824#0 -951358824#0.36 -951358824#0.42 -951358824#0.47 -951358824#0.59 -951358824#0.67 -951358824#0.72 -951358824#0.78 -896786335#27 -896786335#27.19 -896786335#26 -951995494#1 -951995494#0 951354763#4 951354763#5 951995492#1 -896786265#0 909024253#0 951995490#0 951995490#1 951995490#1.10 951995490#1.14 951995490#1.17 951995490#1.20 909024250#2 -909024244#1 -909024244#1.5 -909024244#1.34 -909024244#1.68 909024243#0 951995495 896786335#19 -896893011#1 -896893011#0 -896893011#0.52 -896893013#2 -896893013#1 -896893013#1.7 -896893009 -896893009.79 -896893012#4 -896893012#3 896893006 -896893008#0 896786300#2 896786300#2.40 896786300#2.70 896786300#3 896786300#3.17 896786335#15 896786335#16 896786335#16.12 909024245 909024245.31 909024245.51 909024245.75 909024250#5 909024250#6 909024239#0 909024239#1 909024239#1.17 909024239#2 909024239#2.40 877398366#3 877398366#4 877398366#6 -904371459 -904371459.17 -904371459.33 -904371460#1 951995474 877396860#8 -904371462#0 -904371463#0 -904371465#0 -877396860#4 -896786328#3 -896786328#3.70 904371467#0 904371464 896786325#1 896786325#2 -896786324#1 -896786324#0 -896786324#0.19 -896786324#0.132 -896786324#0.177 951951639#0 951951639#1 951951639#3 951951639#4 951946801 951946795#3 951946795#4 951946795#6 951946795#7 951946795#9 -951946796#1 951946804 951946804.28 951946804.31 951946804.34 951946804.37 951946795#11 951946795#11.34 951946795#11.40 951946795#11.45 896786337#10 896786337#10.21 -951887700#20 -951887700#19 -951887700#18 -951887700#17 -951887700#17.17 951961234#0 951961234#1 -951961233#1 -951961253 -951961253.4 -951961253.8 -951961253.13 -671756019#2 -671756019#2.4 671756018 -876509484#8 -876509484#8.19 951878263#0 951878263#0.8 951878263#0.15 951878263#1 951878263#1.39 951878263#1.46 951878263#1.53 951878263#1.72 951878263#1.75 951878263#2 951878263#2.2 -951878266#4 -951878266#4.37 -951878266#2 -951878266#1 -951878266#1.39 -951878266#1.47"/>
</vehicle>
<vehicle id = "veh8" type= "veh_passenger" depart="7210" >
<route edges =" 951370989 951370989.40 951370989.47 951370989.53 951370989.56 951370989.62 951370989.64 951370989.67 -902433320#1 -902433320#0 902433321#2 -45342799#20 -45342797#4 -951368600#1 -951368603#1 -951368603#0 45342835#2 45342809#2 45342809#3 45342809#4 45342809#5 -45342836#2 -951441769 951370985#1 45342809#7 -45342814#5 -45342814#4 -45342803#5 -45342803#4 -45342803#3 45342820#0 45342820#1 -45342822#1 -45342822#0 -45342831#2 951421967 951417480#1 -951417482#1 -951417481 -45342805#2 951417479 -45342809#15 -45342809#14 -45342809#12 -45342809#11 -45342809#10 -45342809#10.53 -45342809#9 44740885#10 -45342826#1 -45342826#0 45342825#1 45342825#2 45342828#0 45342828#1 45342828#1.100 -45344273#6 -45344273#6.40 -45344273#6.59 -951384598#3 -951384598#2 -951404491 -951404491.16 -951404491.28 -951404491.40 -951404491.51 -951384599#0 700249213#9 700249213#10 -951404492 700249212#3 -45342808#8 -45342808#7 -45342808#7.16 -45344273#0 -897252881 -45378637#10 45378639#7 45378639#8 45378639#8.59 45378639#9 -951404481 -951404484#4 -951404484#4.8 -951404484#4.11 -951404484#4.13 -951404484#4.15 951404480 951404480.8 951404480.10 951404480.12 951404480.16 951404480.58 45378639#11 -951404475 -951404475.33 -951404475.43 -951404476 -951404476.16 -951404476.32 -951404476.50 -951404476.59 -951404476.68 -951404476.84 -951404476.93 -951404476.101 -951404476.106 -951404476.113 971495602#7 971495602#7.32 971495602#7.56 971495602#8 971495602#8.24 971495602#8.86 -313316104#6 -45378650#5 -45378650#5.11 -45378650#4 -45378650#3 -45378650#3.29 -45378650#2 -45378650#2.42 -45378650#2.62 -908846593 -908846593.73 908560901#8 908560901#8.23 908560901#8.56 -313316104#0 -313316082 -45378649#12 896786296#0 896786296#1 896786296#1.36 896786296#2 896786296#2.35 -896786254#1 -896786254#1.26 951355294#1 951355294#1.19 951355294#1.22 951355294#1.23 951355294#1.24 951355294#1.25 951355294#1.27 951355294#1.28 951355294#1.31 951355294#1.41 951355294#1.42 951355294#1.43 951355294#1.44 951355294#1.45 951355294#1.47 -896786258#2 -896786258#2.22 896786255#0 896786255#1 896786255#1.2 896786255#1.52 896786296#4 -896786259#2 -896786259#2.6 -896786259#2.30 -896786259#2.64 -896786259#1 -896786259#1.16 -896786259#1.36 -896786259#1.39 -896786259#1.42 -896786259#1.44 -896786259#1.47 -896786259#1.55 -896786259#1.98 -896786260#6 -896786260#6.19 -896786260#4 -896786260#4.11 -896786260#3 -896786260#1 -896786260#1.5 -896786260#0 -896786260#0.52 896786257#4 909024248 909024248.50 45378665#5 45378665#5.9 45378665#7 45378665#7.25 45378665#7.48 45378665#8 -896786283#4 -896786283#4.15 -896786283#4.56 951433465 876614861#4 951358818#0 951358818#0.49 951358818#0.51 951358818#0.52 951358818#0.53 951358818#0.56 951358818#0.57 951358818#0.59 -951358817 -951358817.15 -951358817.19 -951358817.24 -951358817.27 -951358817.32 876614861#6 876614861#6.60 45378665#13 45378665#13.5 45378665#14 45378665#14.10 45378665#14.32 896786282#0 896786282#0.41 896786267#0 896786267#0.23 896786267#0.26 896786267#0.28 896786267#0.30 896786267#0.33 896786267#0.53 896786267#0.75 896786267#0.212 -896786269#3 -896786269#2 -896786269#1 -896786269#1.15 -909024284 -909024284.22 -909024289#5 -896786283#1 -896786283#1.4 -896786283#1.24 -896786283#0 -896786283#0.23 -877396033#2 896786284#0 896786284#0.89 896786284#1 -877396860#9 -877396860#9.4 904371462#1 904371462#1.16 904371462#1.101 904371462#2 -877398366#9 896786286#0 896786286#0.25 896786286#1 896786286#1.15 896786286#2 896786286#2.19 896786286#3 896786286#4 896786286#4.10 896786286#4.60 -909024289#3 -909024289#3.21 -909024289#2 -909024289#1 -909024289#1.25 -909024289#1.69 -909024289#1.74 -909024289#1.90 -909024289#1.103 -909024289#1.130 -877396033#7 -877396033#7.19 -877396033#7.29 -877396033#7.75 -896786287#2 -896786287#1 951995479#1 877398520#2 877398520#2.17 -896786292#2 -896786292#2.20 -896786292#2.58 -896786292#0 -896786292#0.39 -951995475#1 -951995475#1.25 -951995475#0 896786293#2 896786293#2.8 896786293#2.28 896786293#2.36 896786293#2.45 896786293#2.48 896786293#2.52 -45378665#2 -45378665#2.36 -45378665#1 -909024250#6 -909024246 -909024246.27 -909024246.63 -909024246.70 -909024246.79 -896786335#15 -896786300#3 -896786300#3.27 -896893012#1 -896893012#0 -896893012#0.11 896786303#5 896786303#5.27 896786303#5.100 896786303#5.124 896786303#6 896786303#6.29 -896786302#0 -896786302#0.54 -896786302#0.113 -896786303#2 -896786303#2.23 -951983587#8 -951983587#7 896786304#7 896786304#7.11 951983589#1 951983589#1.89 951983589#1.104 951983589#1.119 -951983587#2 -951983587#1 -951983591 -896786311#9 -896786311#8 896786321#0 896786321#0.46 896786321#0.171 896786321#1 896786321#1.28 896786321#2 896786321#3 896786321#3.48 896786321#3.103 -896786335#8 -896786335#8.39 -896786335#7 951976007 -951976006#1 -951976008 896786319#2 -896786315#4 -951976005 896786317#1 896786317#1.17 896786319#5 896786319#5.19 896786316#0 896786316#1 896786316#1.13 -951930664#5 -877396172#0 -877396172#0.15 -896786313#2 -896786313#2.55 -951930663#1 -951930662#1 -951930662#1.134 896786312#3 896786312#3.13 877395784#8 877395784#8.44 877395784#9 951946815#0 -951946826 951946825#1 -951946816#4 -951946816#2 -951946816#1 -951946816#0 -951946815#4 951946828 -951946787#4 -951946787#3 -951946787#2 951946830 -951946829#0 -896786337#18 -896786337#17 -896786337#17.3 -951946832 -951946814#0 -951946812#1 -951946813 951946810#1 951946810#2 -896786337#14 -896786337#14.40 -896786337#14.111 -952365020 -952365021 -951878231#2 951868619#0 951868620#0 -951868611#1 -951868611#0 951951643#5 951951644#0 -951951642#4 -951951642#3 -951951642#3.15 -951951642#3.18 -951951642#3.20 -951951642#3.23 -951951642#3.36 -951951642#3.39 -951951642#3.41 -951951642#3.43 -951951642#2 876509484#3 -951951650 -951951648#2 -951951648#1 951951649 951878263#7 951878263#8 951878230#4 -951891772#4 -951891772#3 -951891772#2 -951891774 951891771#2 -951878270#0 -951878270#0.10 -951878270#0.13 -951878270#0.16 -951878270#0.20 -951878269#10 -951878269#9 -951878269#7 -951891764#4 -951887656#2 -951887656#1 -951878272#0 -951878269#2 -951878269#1 -951878269#1.25 -951878269#1.51 -951878269#1.75 -951878269#1.92 -951887655#4 -951887655#3 -951887654#0 700825962#4 700825962#4.25 700825962#4.106 700825962#4.130 904196454#0 951887655#0 951887658 -951878272#4 -951878272#2 951887654#2 951891765#2 951891763#1 -951887659#1 -951887660#5 -951887660#3 -951887662 951887661#2 951887661#3 951878266#0"/>
</vehicle>
<vehicle id = "veh9" type= "veh_passenger" depart="10815" >
<route edges =" 951370989 951370989.40 951370989.47 951370989.53 951370989.56 951370989.62 951370989.64 951370989.67 -902433320#1 -902433320#0 902433321#2 45342799#21 45342809#0 45342809#1 -45342835#2 951368603#0 951368601#0 951368601#1 -45342797#2 -45342797#1 -45342797#0 45342834#2 45342809#3 45342809#4 45342809#5 -45342836#2 -45342836#0 -45342818#1 -45342817#2 -45342817#1 45342816#0 45342816#1 -45342814#2 -45342814#1 44740902#11 -44740885#6 -44740885#5 -44740885#5.33 -671399053 -671399054#0 671399058#1 671399058#2 44740901#4 44740901#5 -44740891#4 974189220#1 -44740896#2 -44740896#1 -951417473 -44740957#6 -44740957#5 -44740957#4 44740902#14 44740902#14.81 44740902#14.94 -874839172#0 -44740943 -313316091#20 951438760#0 951438760#1 -44740929#4 -44740929#3 951438763#0 951438763#0.24 951438763#0.27 951438763#0.28 951438763#0.32 951438763#0.37 -951438762 -44740929#1 -44740929#0 -44740930#11 -44740930#10 44740923#0 44740989#1 -44740922#6 -44740922#5 -44740922#5.62 -44740927#17 44740923#3 -951438764 -951438764.47 -951438764.119 -313316091#14 -313316091#14.20 -44740940#2 -44740940#1 44740945#0 44740946#0 44740948#0 -951438765 -313316091#10 -313316091#10.31 45378682#0 45378682#0.48 45378682#1 -45378689#0 -45378683#0 -45378683#0.55 -313316091#6 -313316091#5 -313316091#5.44 45378685#0 45378685#0.22 45378685#1 671178935 45378684#1 -45378655#2 45378683#2 -45378653#6 -45378685#3 45378655#4 -45378656#1 -45378656#0 -45378656#0.43 -45378656#0.46 -45378656#0.48 -45378656#0.49 -45378656#0.51 -45378656#0.58 -45378656#0.60 -45378656#0.62 -45378656#0.64 45378654#1 -45378657#3 -45378657#3.57 -45378657#3.61 -45378657#3.65 -45378657#3.69 -45378657#3.73 -45378657#3.78 -45378672 -45378672.64 45378673 -45378657#1 -44740931#2 -44740931#2.59 -44740931#1 -44740919#0 -951358792 -951358792.26 -951358792.42 -951358792.53 -951358792.66 896892969#18 -971495601#9 -971495601#9.28 -971495601#8 -971495601#7 -44740916#11 -909019783 -909019783.98 -971495601#3 -44740910#8 -671410531#2 -909019784#2 -909019784#1 -909019784#1.47 -909019784#0 313316100#8 313316100#8.72 -908560901#22 -908560901#22.11 -908560901#22.23 -908560901#21 -908560901#21.18 -908560901#21.74 -908560901#20 -908560901#20.10 -908560901#20.61 -908560901#20.115 -908560901#19 -908560901#19.77 -908560901#19.104 -896786299#0 -896786298 -45378665#19 -45378665#18 -951346845 -951346845.45 -951346845.46 -951346845.48 -951346845.49 -951346845.51 -951346845.52 -951346845.76 -951346845.78 -951346845.80 -951346845.82 -951346845.84 -951346845.103 -951346845.133 -951346845.138 -951346845.141 -951346845.144 -951346845.148 896786295#3 896786295#3.23 -951347814#1 -951347814#1.43 -951347814#1.47 951433464 951347813#1 951347813#1.31 951347813#1.37 -909024258#0 -909024259#1 -909024259#1.12 -909024259#0 896786295#5 -896786282#4 -896786282#4.21 -896786282#4.92 896786281#0 896786280#1 -896786275#5 -896786275#4 -909024257 -909024257.38 -909024257.94 896786280#3 909024260 909024260.21 909024260.64 909024260.121 951346848#1 896786296#16 896786296#17 896786296#17.29 896786296#17.96 896786296#17.102 896786296#18 896786296#18.4 896786296#18.17 -44739144#24 909024272#0 909024272#0.29 909024273#0 909024273#0.33 909024273#1 -909024277#3 -909024274 -909024275#0 -909024275#0.56 -909024279#2 -909024279#2.12 -909024279#1 -909024279#1.6 -909024279#1.9 -909024279#1.11 -909024279#1.14 -909024279#1.17 909024278#0 909024278#0.46 909024278#0.119 909024278#1 909024278#1.42 -896786294#6 -896786294#5 -896786294#5.6 -896786294#5.10 -896786294#5.13 -896786294#5.16 -896786294#5.19 -896786294#5.22 -896786294#4 -896786294#3 -896786294#3.26 -896786294#2 -896786294#2.7 -702673217#5 -702673217#4 -702673217#3 -702673217#2 -702673217#1 -702673217#0 -44739144#18 -877398366#21 -877398366#20 -909024264#1 -909024263 -909024263.30 -909024265#0 896786289#1 896786289#1.39 -877398366#18 -909024294#1 909024293#0 -909024290 -909024290.32 -877396860#16 -877396860#15 -904286384#2 -904286384#2.34 -904286384#1 -904286384#1.25 -904371470#1 -904371470#0 -904371473#0 904371474#1 -904371472#1 -904371472#1.50 -904371472#0 -904286388#1 -904286388#1.25 -904371473#3 904371469 -904286385#15 -904286385#15.42 904371468 904371468.35 904371468.46 904371468.50 904371468.53 904371468.59 -904371488#1 -904371488#0 -904371488#0.22 904286385#10 904286375#0 -904286372#0 904286373#4 -904371487#1 -904371487#1.16 -904371489#2 951973468#0 -904286385#5 -904286385#5.9 -904371490#4 951973470#0 -951973471#4 -951973471#3 -951973471#2 -951973471#2.11 -951973471#2.14 -951973471#2.17 -951973471#2.20 -904371456#1 -904371456#0 -904371456#0.17 -671191680#0 -671191680#0.38 -671191680#0.44 -671191680#0.48 -671191680#0.53 -671191680#0.58 -671191680#0.63 -671191680#0.76 -896786327#0 -877395784#21 -877395784#21.14 -951951638#10 -951951638#10.18 951973434#1 951951639#3 951973426#1 -951951638#8 -951951638#7 -951951638#5 -951951638#4 -951946798#0 -952002224#3 -952002224#3.30 -952002224#3.48 -952002224#3.80 904286410#0 904286410#0.33 904286409#0 -951874860#1 951874872 -951874859#1 -951874859#0 951874858#0 -951874860#4 -951874860#3 -904286402#0 -904286410#2 -904286411#3 951874850#0 951874850#1 951874850#1.25 951874850#1.28 951874850#1.31 951874850#1.34 951874850#1.54 951874850#1.57 951874850#1.59 951874850#1.62 -951874849#0 -951874848#0 -952002224#1 896786337#4 951951638#0 951951638#1 951951638#2 952000398 951951639#13 -951946794#0 951946792#1 896786337#8 896786337#8.8 896786337#10 896786337#10.21 -951887700#20 671756019#0 671756019#1 671756018 951961233#0 951961233#0.22 951961233#0.27 951961233#0.32 951961233#0.37 951961233#1 -951961234#1 951961235 671756019#4 -951887686#1 -951887686#0 -951887682#4 951887687#0 951887687#0.26 951887687#1 951887687#1.5 951887687#1.11 -951887700#15 -951961243 -951961242#0 -951961240#1 -951961245 951891772#0 -951891773 -951891771#0"/>
</vehicle>
<vehicle id = "veh10" type= "veh_passenger" depart="10815" >
<route edges =" 45342801#5 45342801#5.32 902433317#3 951421968#0 951421968#1 951421968#1.20 951421968#2 951421968#2.9 -45344271#34 -951368598#1 -951381446#0 951368595#1 951368595#1.17 951368595#1.34 902433317#8 902433317#8.29 951368593#1 972507120#2 45342812#0 -951366779#1 -951366779#0 951366780#1 951366780#1.16 951366780#1.54 -951369746#4 -951369746#4.24 -951369746#4.27 -951369746#4.29 -951369746#2 -951369746#2.3 -951369746#2.36 -951369746#2.42 -951369746#2.45 -951369746#2.50 -951369746#1 -951369746#1.3 -951369746#1.9 -951369746#1.18 -951369746#1.26 -951369746#1.35 -951369741#4 -951369741#2 -951369741#2.8 -951369741#2.11 -951369741#2.13 -951369741#2.16 -951369741#2.19 -951369741#2.22 -951369741#1 -951369741#1.20 -951369741#1.25 -951369741#1.30 45344273#27 45344273#27.17 45344273#28 45344273#29 45344273#29.12 45344273#29.34 45344273#30 45344273#30.8 45344273#30.25 45344273#30.39 45344273#31 45344273#31.5 45344273#31.16 45344273#32 45344273#32.22 45344273#32.44 45344273#33 -950238177#2 -950238177#2.11 -950238177#2.31 -950238177#1 -950238177#1.15 -950238177#0 -950238177#0.14 -950238177#0.29 -950238177#0.46 -950238177#0.76 -950238177#0.80 -950238177#0.84 950455053 950235692#2 950235697#0 950732876 950235699#3 950235692#4 45344273#36 45344273#36.18 -950238179#1 -950238179#0 950238178#4 950238178#4.14 -45344278#1 -903341095#2 -903341095#1 -903341095#0 45344271#19 45344271#19.27 45344271#21 45344271#22 45344271#22.32 950235714#0 950235714#0.35 -950759347#1 -950759347#1.4 -950759347#1.8 -950759347#1.13 -950759347#1.29 -950759347#1.34 -950759347#1.39 -950759347#1.44 -950759347#1.51 -950759347#1.81 -950759347#1.85 -950759346#2 -950759346#2.9 -950759346#2.14 -950759346#2.19 -950759346#2.25 -950759346#2.37 -950759346#2.40 -950759346#2.44 -950759346#2.53 -950759346#2.57 -950759346#2.61 -950759346#2.66 -950759346#1 -950759346#0 -950806855#3 45344277#2 950806857 950235725#3 950806856 950806856.10 950806856.22 950806856.28 950806856.35 -950235727#3 -950235727#2 -950235727#2.16 -950806853 -950235725#5 -950806852#1 -950806851 -950806851.20 -950806851.22 -950806851.24 -950806851.27 -950806851.30 45344277#4 -950806859 -950806859.27 -950806859.38 950235722#1 950235722#1.5 950235722#1.8 950235722#1.13 950235722#1.26 950806860#0 950806860#0.6 950806860#0.11 950806860#0.18 950806860#0.28 950806860#0.34 950806860#0.40 950806860#0.51 950806860#0.61 950806860#0.72 -950235723#0 45344271#13 45344271#13.28 45344271#15 -45344278#5 950238180#0 -950238181#3 -950238181#3.14 -950238181#3.23 -950238181#3.29 -950238181#3.37 -950238181#3.46 -950238182#2 -950238182#2.10 950780323 950780323.8 950780323.15 950780323.22 950780323.29 -950238184#2 -950238184#2.9 -950238184#2.19 -950238184#2.27 -950780324#0 -950780324#0.30 950238181#1 -950238182#0 -950238178#1 -950238180#5 -950238180#5.16 -950238180#4 -950238180#4.38 -950238184#0 897252880#8 897252880#8.48 897252880#9 -45344273#40 -950235700#3 950235699#0 950235695#0 950235697#3 -950235700#1 -950235700#0 45344336#5 -950235695#3 950235694#1 950235694#2 950235694#3 -950235703#3 -950455051#1 -950455051#1.51 -950455051#0 -950455051#0.3 -950455051#0.18 -950455051#0.33 950455048#1 950455048#1.12 950455048#1.23 950455048#1.41 -950235694#6 -950235694#6.23 -950235694#6.27 -950235694#6.30 -950235694#6.35 951381436 951381436.26 951381436.34 951381436.39 951381436.45 -897252875#0 -897252875#0.4 -897252875#0.15 -897252875#0.35 897252876#3 897252876#4 45344320#2 -45344329#7 45344327#0 45344331#4 45344320#4 -897172091#13 -897172091#12 -897172091#10 -897172091#9 699875131#0 699875130#0 699875130#0.20 699875130#1 -897252883#1 -897252883#0 -897252883#0.7 -897172091#1 -897172091#0 -45344294#6 -45344294#6.9 -45344294#6.25 -45344294#5 -45344294#5.7 -45344294#4 -45344294#4.7 -45344294#4.18 -45344294#3 897252857 -897252858#1 951370960 -951370961#0 897252852#6 897252852#6.19 897252858#3 -45344304#3 -45344304#3.29 -45344304#2 -45344304#2.28 897252853 897252850#0 897252850#1 897252850#1.24 -950389247#2 -950389247#2.20 -950389247#2.28 -950389246 -950389246.5 -950389246.12 -950389246.18 -950389249#2 -950389249#2.2 -950389249#1 -950389249#1.5 -950389249#1.8 -950389249#1.11 -950389249#1.14 -950389249#1.33 -950389249#0 -950389249#0.2 -950389249#0.5 45344272#8 45344272#8.32 45344272#9 45344272#9.28 45344272#10 45344272#10.38 -896892971#3 -896892971#2 -896892971#2.32 -896892971#2.61 -896892971#2.75 45344299 45344299.6 45344299.11 45344299.13 45344299.15 45344299.23 45344299.26 45344299.28 45344299.30 45344299.32 45344299.33 45344299.72 -45344286#11 951404497 951404497.20 951404497.26 951404497.33 951404497.38 951404497.43 -897252855#0 -45344287#0 -45344287#0.5 -45344287#0.14 -45344286#7 -702632122#4 -702632122#4.41 -702632122#4.57 -702632122#4.62 -702632122#4.67 -702632122#4.71 -702632122#4.73 -702632122#4.77 -702632122#3 -951384601#1 951384600 -702632123#2 -702632123#1 -702632123#1.4 -702632123#0 45344272#13 45344272#13.4 45344272#13.35 45344298 896892974 971495602#11 -896892975 -670655885 -670655885.29 -45344283#10 -45344283#10.13 -45344283#10.60 -45344283#10.150 -45344283#10.267 -45344283#10.331 -45344283#10.378 -45344283#10.440 -45344283#10.458 -45344283#10.481 -45344283#10.513 -45344283#9 950233988#1 950233988#1.76 950233988#2 950233988#2.43 950233988#2.55 700278833#4 -950233989#1 -950233989#1.12 -950233989#1.22 -950233989#0 -45344283#6 -45344283#6.9 -45344283#6.52 -45344283#6.69 -950553582#2 -950553582#2.27 -950553582#1 -950553582#1.2 -950553582#1.5 -950553582#1.66 -950553582#1.76 -950553582#1.84 -950553582#1.90 -950553582#1.96 -950553582#1.103 -950553582#1.114 -950553582#1.120 950553581#0 950553581#0.7 950553581#0.14 700278833#6 700278833#6.17 700278833#6.73 700278833#6.117 45344284#0 45344284#1 45344284#2 45344336#0 -950238193#2 -950238193#1 -950238193#0 45344280#14 45344280#14.13 950553578#0 950553578#1 950553577#0 950553577#0.25 -950553576 -45344283#2 -45344283#1 -45344283#1.3 -45344283#0 45344282#1 45344282#2 45344282#2.1 45344282#2.36 45344282#3 -45344284#6 -45344284#5 -45344284#4 -950238192#4 -950238192#3 -950241233#1 -950241233#0 950241225#0 950241225#0.21 950241225#0.51 -950241224#2 -950390893#3 -950241223#2 -950241223#2.25 -950241223#2.40 -950241223#2.50 -950241223#2.61 -950241223#2.75 -950392120#0 -950392120#0.3 -950392120#0.25 -950392120#0.41 -950392120#0.51 -950392120#0.60 -950392120#0.69 950390889#1 950390889#1.8 950390889#1.30 950392119 950392119.22 950392119.30 950392119.37 950392119.49 950392119.57 950392119.64 950392119.68 950392119.73 -700278832#2 -700278832#2.6 -700278832#2.16 -700278832#1 -700278832#0 -700278832#0.10 -700278833#2 -700278833#2.24 -700278833#1 950241220#0 950241220#0.109 950241220#0.162 950241220#1 950241220#2 950241220#3 950241223#0 950241222#4 950394096#0 950394096#1 -45344282#6 -45344282#6.21 -45344282#6.99 950241848#0 950241857#3 950241857#3.27 950241857#3.51 950241857#4 950243393#1 950243393#1.48 950243393#1.98 950241855#4 -897252878#4 -897252878#4.26 -897252878#3 950396020#0 -950396021#0 -950396021#0.23 -950396021#0.28 -950396021#0.34 -950396021#0.39 -950396021#0.45 -950396021#0.50 -950396021#0.55 -950396022#0 -897252878#0 -897252877#2 -897252877#2.49 950243392#0 -950241209#2 -950241209#2.20 -950241209#2.43 -950241209#2.65 -950241209#2.77 -950241209#2.90 -950241209#2.95 -950241209#2.102 -950396023 -950243391#1 -950243391#1.3 -950243391#0 -950243391#0.66 -950243391#0.74 -950243391#0.79 -950243391#0.86 -950243391#0.116 -950241209#4 -950241209#4.34 -950396025 -897252877#0 -897252877#0.24 -45344280#2 -45344280#2.7 -45344280#0 -45344280#0.24 -45344280#0.53 897252879#13 897252879#14 897252879#14.50 897252879#15 897252879#17 897252879#18 897252879#18.162 897252879#19 897252879#19.29 897252879#20 897252879#21 897252879#21.85 897252879#22 897252879#23 896892972 896892973 896892973.27 896892973.31 -896786335#50 -896786335#49 -896786335#48 -896786335#48.15 -896786335#47 -896786335#46 -896786335#44 -896786335#44.9 -896786335#44.71 -896786335#43 -896786335#42 -896786335#42.22 896892983#0 896892983#0.10 896892983#1 896892983#1.19 -951421976 896892982#2 -896786335#39 -896786335#39.27 -896786335#37 -896786335#36 -951349917#1 -951349917#1.14 -951349917#1.29 -951349917#1.41 -951349917#1.59 -951349918 876614662#9 876614662#9.52 -896786335#32 -896786335#32.17 951355291 951355291.25 951355291.31 951355291.36 951355291.46 951355291.50 951355291.55 951355291.60 951355291.65 -908869252#1 -908869252#0 -908869252#0.17 -896786335#30 -896893028#5 -896893028#4 -896893028#4.22 -896893028#3 -896893028#3.26 896893016#0 896893017#0 896893017#1 -896786335#28 -896786335#27 -896786335#27.19 -896786335#26 -877388728#14 -877388728#13 -877388728#13.55 -896893014#1 -896893015#0 -896893005#3 -896893005#2 -896893005#2.6 -877388728#10 -877388728#10.145 -877388728#9 -896892995#1 -896892995#1.27 896892997#1 -896892998#2 -896892998#2.10 896892993 896892993.48 896892993.74 896786307#6 896786307#6.14 896786307#6.33 -896893000 -896893000.18 -896893000.45 896786308#4 896786304#0 896786304#0.56 896786304#1 896786304#2 896786300#0 896786300#0.23 896893013#0 896893013#0.10 896893013#0.59 896893013#1 896893013#1.26 896893013#2 896893013#3 896893013#3.9 896893013#5 896893013#5.3 896893013#5.5 896893003 896893004#2 896893004#3 896893004#3.24 896893004#4 896893004#5 -896786335#23 -896786335#23.44 -896786335#22 -896786335#21 -896786335#21.41 -896893011#1 -896893012#6 -896893012#6.12 -896893012#5 -896893012#5.11 -896893012#4 -896893007#1 -896893007#1.18 -896893008#1 -896893008#0 896786300#2 896786300#2.40 896786300#2.70 -896893012#1 -896893012#0 -896893012#0.11 -896786303#4 -896786303#4.22 896786301 896786301.58 896786303#6 896786303#6.29 896786302#1 896786304#6 896786304#7 896786304#7.11 -951983589#0 -951983588#0 951983586#1 896786304#9 896786304#9.20 -896786311#10 -896786311#9 951976010#0 951976010#1 -896786335#9 -896786321#3 -896786321#3.6 -896786321#3.61 -896786320#3 -896786320#3.5 951976009#0 -951976006#2 -951976006#1 -951976006#0 896786315#4 -896786319#2 -896786319#1 -896786319#1.31 -896786319#0 -896786319#0.11 -896786335#4 -896786335#4.18 -896786335#3 -896786335#3.10 -896786335#2 -896786335#1 -896786335#1.14 -896786335#0 -951946803#2 -951946803#1 -951946803#1.55 -951946803#1.59 -951946803#1.61 -951946803#1.64 -951946803#0 951951639#1 951946802 951946795#2 951946795#3 951946795#4 951946795#6 951946795#7 951946795#9 -951946796#1 951946804 951946804.28 951946804.31 951946804.34 951946804.37 951946795#11 951946795#11.34 951946795#11.40 951946795#11.45 -951887683 -951887684 -951887682#6 -951887682#5 951887686#0 -951887688#2 951887690 -951887700#17 -951887700#17.17 951961234#0 951961234#1 -951878265#2 -951878265#1 -951878265#0 951878264#2 -951878263#3 -951878266#4 -951878266#4.37 -951878266#2 -951878266#1 -951878266#1.39 -951878266#1.47"/>
</vehicle>
<vehicle id = "veh11" type= "veh_passenger" depart="10815" >
<route edges =" -45342801#4 45342799#23 45342799#25 45342799#25.7 45342799#25.22 45342799#26 45342799#27 45342799#27.15 45342799#27.20 45342799#27.25 45342799#27.36 972507120#0 -903341083#3 -903341083#2 -903341083#1 -951368605#2 -951368605#1 951368604 -45342801#1 -45342801#0 -45342798#1 -45342798#0 -45344273#21 -45344273#21.28 45344320#0 45344320#0.59 45344320#0.67 45344320#0.75 45344320#0.90 45344320#1 897252876#5 897252876#5.34 -45344322#2 -45344322#1 -951404485 -45344321#0 -45344273#17 -45344273#17.20 -45344273#17.31 -45344273#16 -45344273#16.5 -45344273#16.30 902433295#0 902433295#0.35 902433295#1 897252876#9 897252876#10 -45344293#3 951370980 951370980.48 951370980.53 951370980.55 951370980.56 951370980.58 951370980.60 -951370982#0 -45344293#1 -45344293#1.78 -45344293#0 -45344273#13 45342827#0 45342827#0.77 45342827#0.86 45342827#0.92 45342827#0.101 45342827#1 -45342826#0 -45342825#0 45342809#11 45342809#12 45342809#14 45342809#15 45342809#16 45342833#0 45342833#1 45342833#2 45342824#1 45342824#2 45342824#3 45342823#2 -45342828#0 45342825#3 45342825#3.55 45342825#3.65 45342825#3.72 45342825#3.81 45342825#3.88 -45344273#11 -45344273#10 -45344273#10.42 -45344273#9 -45344273#8 -45344273#8.10 -45344273#7 -45344273#7.22 -951384596#1 -951384596#1.24 -951384596#1.31 -951384596#1.36 -951384596#1.46 -951384596#1.54 -951384596#1.60 -951384596#1.72 -951384596#1.107 -951417467 -951417467.14 -951417467.15 -951417467.17 -951417467.18 -951417467.21 -951417467.23 -951417467.24 -951417467.25 951384598#2 -951384597 -951384597.29 -951384597.36 -951384597.43 -45344273#3 -45344273#3.6 -45344273#3.14 -45344273#3.31 -45344273#3.48 -45344273#2 -45344273#2.6 -45344273#2.24 -45344273#1 -45344273#1.7 -45344273#0 -897252881 -45378637#10 45378639#7 -951404483#2 -951404483#1 -951404474#1 951404473 -951404484#6 -951404484#5 951404481 45378639#10 45378639#11 45378639#12 45378639#12.8 -45344310#1 -45344310#0 -45344310#0.10 -45344310#0.18 -45344310#0.30 -45344310#0.41 -45344310#0.52 971495602#8 971495602#8.24 971495602#8.86 -313316104#6 -313316104#5 -313316104#5.12 -313316104#5.27 -313316104#5.46 -313316104#4 -313316104#4.4 -313316104#4.18 -313316104#4.31 -313316104#4.41 -313316104#4.56 -313316104#3 -313316104#2 -313316104#2.13 -313316104#2.35 -313316104#2.44 45378651#0 45378651#0.22 45378651#1 45378651#2 45378651#2.13 45378652#0 45378652#0.26 908560884#0 951347808#0 951347807 908560885#3 908560885#3.4 908560885#3.9 908560885#3.15 -45378651#5 -45378651#5.26 -45378651#4 908560887#0 908560887#0.10 908560887#1 951347805 951347805.34 951347805.35 951347805.37 951347805.38 951347805.40 951347805.42 951347805.44 951347805.45 951347805.47 951347805.48 951347805.50 951436329#1 -908560882#2 -908560882#2.31 -908560882#2.36 -908560882#2.42 -908560882#2.46 -908560882#2.49 -908560882#2.63 908560881#0 908560881#0.35 908560881#0.70 908560881#0.73 908560881#0.74 908560881#0.76 908560881#0.78 908560881#0.81 908560881#1 908560881#1.17 908560881#3 908560881#3.32 908560881#3.54 908560880 908560880.21 908560880.55 -45378643#5 -45378643#5.11 -45378643#4 -45378643#4.5 -45378643#4.18 -45378643#2 -45378643#0 -45378643#0.26 -45378651#11 -45378651#10 -908560874#2 -908560874#2.42 -908560874#2.61 -908560874#2.69 -908560874#2.78 -908560874#2.102 -908560874#2.112 908560873#0 908560873#0.27 951436654#0 951436653 -908560872#0 -908560872#0.5 -908560864 -908560864.31 -908560866#0 -908560866#0.1 -908560866#0.7 -908560866#0.13 -908560866#0.32 -908560874#0 -908560874#0.14 -908560901#17 -908560901#17.7 -908560878 -908560878.43 -908560878.66 -908560878.111 -908560878.142 -908560878.146 -908560878.150 -908560878.154 -908560878.161 -908560878.186 -45378651#8 -45378651#8.10 -908560876 -908560877#0 -908560877#0.10 -908560877#0.27 -908560877#0.90 -908560877#0.115 -908560877#0.140 -908560901#15 -908560901#14 -908560901#14.9 908560885#0 908560885#0.20 908560885#0.52 908560885#0.79 -908560884#2 -951347809 -908560901#12 -908560901#10 -908560901#9 -908560901#9.4 -908560901#9.59 -313316104#0 -313316082 -45378649#12 896786296#0 -951355298#2 -951355298#2.7 -951355298#2.9 -951355298#2.11 -951355298#2.15 -951355298#2.38 -951355298#2.43 951355292 -45378649#9 -45378649#9.7 951355297#0 -951355296 -951354759#0 -951354759#0.4 -951354759#0.15 -951354759#0.20 -951354759#0.24 -45378649#5 -45378649#5.24 -45378649#5.57 -45378649#5.68 -45378649#3 -45378649#3.8 -896786265#8 -896786265#7 -896786265#7.11 -896786265#6 -896786265#6.26 -896786265#5 -896786265#4 -896786265#4.59 -951995493#1 951354763#5 951995492#1 -896786265#0 896786266#11 896786266#11.13 909024250#0 909024250#1 -951995490#1 -951995490#1.13 -951995490#1.16 -951995490#1.19 -951995490#1.23 909024242 -896786293#6 909024251 909024251.27 909024250#4 909024250#5 909024250#6 909024239#0 909024239#1 909024239#1.17 909024239#2 909024239#2.40 877398366#3 951995475#4 904371460#5 877396860#4 904371465#0 904371465#1 -904371466 -904371466.129 -904286375#3 -904286375#2 -904286375#2.19 904286373#0 -951975997 -671191680#8 896786325#0 896786325#0.98 896786325#0.107 896786325#0.114 896786325#0.120 896786325#0.127 896786325#0.178 -904371464 -904371467#0 -896786328#2 -896786328#2.49 896786325#2 -896786324#1 -896786324#0 -896786324#0.19 -896786324#0.132 -896786324#0.177 -877395784#19 -951946816#15 951946795#0 951946795#0.4 951946795#0.7 951946795#0.9 951946803#1 951946803#1.17 951946803#1.19 951946803#1.22 951946803#1.25 -951946816#13 -951946816#13.3 -951946816#13.8 -951946816#12 -951946816#11 -951946816#10 -951946823 -951946821#0 -951946821#0.2 -951946821#0.6 -951946821#0.9 951946818#3 951946818#3.2 951946818#3.6 -951946817#3 -951951641 951946833#3 -951946817#5 -951951636 951951635#2 -951946806#8 -951946806#7 951946807 -951946806#2 951951630 951946833#11 951946833#11.92 951946833#11.95 951946833#11.98 951946833#11.101 -951946806#0 -952365020 -952365021 -951878231#2 951868619#0 951868620#0 -951868611#1 -951868611#0 -951951643#4 -951951643#3 -951951646 -951951642#2 -951951642#1 -951951642#0 -951878263#5 -951878269#15 -951878269#14 -951878269#13 -951878269#12 -951891766#3 -951891766#2 -951891766#2.2 -951891766#2.6 -951891766#2.10 -951891766#2.15 -951891767 951878269#9 -951930613 951878270#2 877401978#0 877401978#1 951878266#0"/>
</vehicle>
<vehicle id = "veh12" type= "veh_passenger" depart="14420" >
<route edges =" 951370989 951370989.40 951370989.47 951370989.53 951370989.56 951370989.62 951370989.64 951370989.67 -902433320#1 -902433320#0 902433321#2 -45342799#20 -45342797#4 -45342797#3 -951368601#1 -951368602#1 -951368602#0 -45342835#0 -45342797#0 -45342834#1 -45342834#0 44740902#8 -45342798#6 -45342798#5 45342818#0 -45342817#2 -45342803#7 -45342803#6 45342814#4 -45342818#3 951370985#0 951370985#1 45342839#0 45342839#1 -45342840#2 671416444#0 671416444#1 671416443#0 671416443#1 671416443#2 -45342838#0 45342810#1 45342810#2 45342810#3 45342810#4 45342810#4.21 45342810#5 45342810#6 45342810#6.38 -44740885#16 -45342830#0 45342810#8 45342810#8.39 951366785 -44740885#14 -44740885#14.36 -44740885#14.40 -44740885#13 -44740885#13.4 -44740885#13.21 -44740885#13.24 -44740885#13.27 -44740885#13.31 -44740885#13.35 -44740885#13.56 -44740885#13.59 -44740885#13.62 -44740885#12 -44740885#12.2 -44740885#12.5 -44740885#11 -44740885#11.4 -44740885#11.8 -45342826#1 -45342826#0 45342825#1 -45342824#4 -45342823#1 -45342823#0 -45342805#4 951417480#0 951417480#1 951417482#2 45342831#2 45342822#0 -45342832#1 -45342832#0 45342804#3 -45342820#0 -45342803#2 -45342803#1 44740957#0 44740957#1 44740957#2 44740902#14 44740902#14.81 44740902#14.94 -874839172#0 -44740943 -313316091#20 951438760#0 -672215964 672215965#1 -44740922#0 -313316091#16 -313316091#14 -313316091#14.20 -44740940#2 -44740940#1 44740945#0 44740945#1 44739167#14 44740949#0 44740949#1 -44740953#7 -44740953#6 951358801 951358806#0 951358805#0 951358805#1 -44740928#1 44740926#7 44740926#8 44739163#17 -44740927#9 -951358800#1 -951358800#0 44740918#2 44739163#19 -44740919#1 44740931#1 -313316091#1 -313316091#1.32 -313316091#0 -313316091#0.27 -313316091#0.72 -313316091#0.80 45340579#18 45340579#18.164 44740932#0 -44740934#4 -44740934#3 -44740934#3.33 -909019780#1 -909019780#0 668599376#1 668599376#2 668599376#2.6 -668599375#0 -909019783 -909019783.98 -45378660#1 -45378660#1.21 -45378660#1.52 -45378660#1.88 -45378660#1.126 -908560900#3 951346855#0 951346855#0.40 951346855#0.55 -951346854 -951346854.30 -951346854.33 -951346854.34 -951346854.36 -951346854.39 -951346854.40 -951346854.42 -951346854.50 -951346854.52 -951346854.54 -951346854.56 -951346854.59 -951346854.61 -951346854.62 -951346854.64 -951346854.65 -951346854.67 -951346854.69 -951346854.101 908560901#22 908560901#22.77 908560901#22.89 -971495601#0 -313316086 -44739144#26 -903953334#9 -903953334#9.24 -903953334#9.50 -903953334#9.58 -903953334#8 -903953334#8.6 -903953334#8.17 -903953334#8.53 -903953325#4 -903953325#3 -903953325#2 -903953325#2.18 -909778547#2 -909778547#0 44739144#20 44739144#21 -896786294#12 -896786294#12.19 -896786294#12.25 -896786294#12.30 -896786294#12.36 -896786294#12.41 -909024262#1 -909024262#1.12 909024261 909024261.37 -702673217#1 -702673217#0 -44739144#18 671752228#0 -671960103#1 -951346850 -44739144#15 671960104#0 671960104#1 671960102 -671960101#10 44740913#4 44740913#5 -44739144#12 909778560#0 909778560#0.71 903953323#1 909778559#0 672815156#0 44740912#7 -904286388#7 -904286388#7.24 -904286388#6 -904286388#6.28 904371479#0 904371479#0.10 904371479#0.23 904371479#0.35 904371476 904371475#1 904371479#3 896786289#0 896786289#0.42 909024265#0 909024263 909024263.62 909024264#1 -877398366#19 -877398366#18 -877398366#17 -877398366#17.7 896786294#0 896786294#0.33 -702673217#5 -702673217#4 -702673217#3 896786289#3 -896786294#8 -896786294#7 -896786294#7.20 -896786294#6 -896786294#5 -896786294#5.6 -896786294#5.10 -896786294#5.13 -896786294#5.16 -896786294#5.19 -896786294#5.22 -896786294#4 -909024256#1 -909024256#1.22 -909024256#1.80 -896786277#3 -896786277#2 -896786277#0 -896786290#5 -896786290#4 -896786290#4.18 -896786290#3 -877396860#13 -877396860#12 -877396860#11 -671191680#13 904286381#0 904286381#2 904286381#3 904286381#3.4 904286381#3.18 -904286372#1 -904286375#0 951992355 904286381#6 -904371470#2 904286384#1 904286384#1.16 -904286383#0 904286386#3 904286386#3.9 904286386#3.31 904286386#4 904286386#4.19 -904371469 904371473#3 -904286388#0 904286386#7 671191683#3 -904286387#3 -904286387#3.46 -904286387#3.53 -904286387#2 -904286387#2.12 951973453#0 951973453#1 951973451#3 951973452#3 -904371488#8 -904371488#8.6 -904371488#8.17 -904371488#7 -904371488#7.3 -904371488#7.6 -904371488#6 -904371488#5 -904371488#4 904371486#0 951992348 -904286385#8 -904286385#6 951973468#1 951973468#2 951973468#2.24 951973468#2.27 951973468#2.29 951973468#2.32 -904371490#0 -951973470#1 -951973470#1.3 -951973470#1.6 -951973470#1.10 -951973471#4 -904371456#2 -904371456#2.22 -951973471#1 -951973471#0 -671191680#1 -671191680#1.13 -671191680#0 -671191680#0.38 -671191680#0.44 -671191680#0.48 -671191680#0.53 -671191680#0.58 -671191680#0.63 -671191680#0.76 -896786327#0 -877395784#21 -877395784#21.14 -951951638#10 -951951638#10.18 951973434#1 951951639#3 951951639#4 -951973432#1 -951951638#7 -951951638#5 -951951638#4 -951951638#3 -951951638#2 -951946794#1 -951946794#0 951946792#1 896786337#8 896786337#8.8 896786337#10 896786337#10.21 -951887700#20 -951887700#19 -951887686#1 -951887688#2 -951887688#1 951887689 -951887700#16 -951961233#4 951961244 951961244.37 951961244.40 951961244.43 951961244.47 -951961242#1 -951961242#0 -951961240#1 -951961245 951891772#0 -951891773 -951891771#0"/>
</vehicle>
<vehicle id = "veh13" type= "veh_passenger" depart="14420" >
[...]
</vehicle>
<vehicle id = "veh18" type= "veh_passenger" depart="21630" >
<route edges =" 951370989 951370989.40 951370989.47 951370989.53 951370989.56 951370989.62 951370989.64 951370989.67 -902433320#1 -902433320#0 902433321#2 45342799#21 45342809#0 951368600#0 951368600#1 -45342797#3 -45342797#2 -951370983 -951368602#0 45342835#1 45342835#2 45342809#2 45342809#3 45342798#3 45342798#4 45342798#5 45342813#0 45342813#1 951370984#2 44740902#10 44740902#10.9 44740902#11 44740885#7 44740885#8 45342803#5 45342814#4 45342814#5 45342809#8 44740885#10 -45342826#1 -45342826#0 45342825#1 -45342824#4 -45342823#1 -45342833#4 -45342833#3 -45342833#2 -45342833#1 -45342833#0 -45342809#16 -45342809#15 -45342809#14 -45342805#4 951417480#0 -951421967 45342831#2 45342822#0 45342822#1 -45342820#1 -45342804#3 -45342804#2 -45342804#1 -45342843#3 45342803#0 45342803#1 -45342802#2 -45342802#1 44740902#13 44740957#4 -671399051#1 -671399051#0 -44740942#1 -44740942#0 974189220#5 902433296 44740967#0 -44740929#6 -44740929#5 -951438760#1 -672215964 -672215965#0 -672215965#0.46 -951438759 44740922#2 44740922#2.25 44740922#3 -44740967#4 -44740967#3 -44740930#16 -44740962#2 -44740962#1 -44740962#0 -44740960#0 -44740930#13 -44740930#12 -44740930#11 -44740922#7 -44740989#1 44740923#1 44740926#1 44740924#0 -44740955#2 951358804 44740926#3 44740926#4 44740925#2 44740925#3 44740927#15 44740927#16 44740923#3 44740953#2 44740940#0 44740940#1 -44740948#1 -951438765 -313316091#10 -313316091#10.31 -313316091#8 -313316091#8.29 -44739167#15 -44739167#15.17 44740949#0 44740949#1 -44740953#7 -44740953#6 -44740953#5 -44740953#4 -44739167#12 -44739167#11 44740926#6 -44740928#0 -44740928#0.75 44740930#7 -44739167#9 102277232#2 102277232#2.138 44739163#14 44739163#15 -44740981#1 44740983#0 -44740985#1 44740987 -951366798 -951366798.30 -951366798.39 -951366798.48 -951366798.59 -951366798.70 -951366798.78 -951366798.83 -951366798.89 951358797#3 951358800#1 44740927#9 44739163#18 -44740918#2 -44740918#1 -44740918#0 44740920#6 44740920#8 -313316091#0 -313316091#0.27 -313316091#0.72 -313316091#0.80 45340579#18 45340579#18.164 45340579#19 45340579#19.12 45340579#19.84 45340579#20 45340579#20.80 955813297#0 955813297#1 44740916#1 44740916#1.7 44740916#1.16 44740916#2 44740916#2.8 44740916#2.32 44740916#3 -909019776#1 -909019776#1.34 -909019776#0 -909019776#0.39 44740910#4 44740933#3 44740933#3.108 44740933#3.192 -44740932#6 44740910#6 909019782 909019781#1 44740932#4 -909019787 -44740933#1 -44740933#0 -909019791#2 -909019791#1 -909019790#1 -909019789#2 -909019789#1 44740916#7 -44740932#2 -44740934#4 -44740934#3 -44740934#3.33 -44740934#2 -44740934#1 -44740934#1.2 -668599375#2 -668599375#2.17 -668599375#1 -668599375#1.9 -668599375#0 44740916#11 -971495601#6 -971495601#5 -971495601#3 -951346855#1 -951346855#1.22 -951346855#1.42 -951346855#1.57 -951346855#0 -951346855#0.7 -951346855#0.23 -908560900#2 -908560900#1 908560901#22 908560901#22.77 908560901#22.89 -971495601#0 -313316086 -44739144#26 -44739144#24 -44739144#22 -44739144#21 -951346849 -909778546#0 -903953325#2 -903953325#2.18 -909778547#2 -951361609 903953324#1 903953324#1.22 702673217#0 909024262#0 909024262#1 909024262#1.26 -896786294#11 -896786294#11.13 -909024271#1 -909024271#0 -909024271#0.59 -909024271#0.78 -909024277#1 -909024277#1.20 909024270 909024270.21 909024270.47 -896786294#8 -909024279#5 -909024279#5.21 -909024280#1 -909024280#1.18 -909024280#0 -896786295#10 -896786295#9 -896786295#8 -896786295#8.13 -896786295#8.15 -896786280#3 909024257 909024257.36 909024257.92 -896786275#3 896786271#1 896786270#0 896786270#1 -951421977 896786268#3 896786295#13 -896786294#5 -896786294#5.6 -896786294#5.10 -896786294#5.13 -896786294#5.16 -896786294#5.19 -896786294#5.22 -896786294#4 -896786294#3 -896786294#3.26 951992347 -896786277#2 896786278#0 896786278#0.39 -896786279#5 -896786279#4 -896786279#4.27 -896786279#3 -896786279#3.22 -896786269#4 896786267#1 896786267#1.28 896786267#2 877398366#14 877398366#14.18 -904286380#3 -904286380#3.41 -904286380#2 877396860#13 -896786290#2 904286383#2 904286383#3 904286383#3.17 904286383#4 -904286382#0 -904286374 -904286375#2 -904286375#2.19 904286373#0 904286373#1 904286373#2 904286373#2.10 904286373#3 904286373#3.20 904286373#3.23 904286373#4 904286385#8 -951992348 904371486#1 904371486#2 904371486#4 904371486#4.3 -951973462#3 -951973462#3.3 -951973462#3.5 -951973462#3.8 -951973462#3.10 -951973462#3.15 -951973462#3.18 -951973462#3.21 -951973462#3.25 -951973462#3.31 -951973462#3.34 -951973462#3.38 -951973462#3.47 -951973462#3.53 -951973462#3.58 -951973462#3.69 -951973462#3.74 -951973462#3.79 671191682#2 904371493#3 904371493#4 904371493#5 904371492#2 -904371491 904286385#3 904286385#4 904371489#0 904371489#1 904371489#1.4 904371489#1.8 904371489#1.11 904371489#1.34 951973468#0 951973468#1 -951973469 904371490#2 -904371492#6 -904371456#3 -904371456#2 -904371456#2.22 -951973471#1 -951973471#0 -671191680#1 -671191680#1.13 -671191680#0 -671191680#0.38 -671191680#0.44 -671191680#0.48 -671191680#0.53 -671191680#0.58 -671191680#0.63 -671191680#0.76 -896786327#0 877395784#22 877395784#22.56 877395784#23 -952002224#7 -952002224#7.17 -952002224#7.71 -951973426#2 951951638#9 951973434#1 951951639#3 951951639#4 -951973432#1 -951973432#0 -952002224#5 -952002224#5.5 951973430#0 -951951638#4 951946798#1 951951639#10 951951639#11 951951639#13 951946794#1 -951951638#1 -952000397 951951639#15 896786337#6 896786337#7 896786337#8 896786337#8.8 896786337#10 896786337#10.21 -951887700#20 671756019#0 671756019#1 671756019#2 671756019#2.43 671756019#3 671756019#4 -951887700#18 -951887700#17 -951887700#17.17 -951887700#16 -951887700#15 -951887700#14 -951887700#12 -951887700#12.12 951961240#0 951961240#0.54 951961240#0.57 951961240#0.59 951961240#0.62 -951961245 951891772#0 -951891773 -951891771#0"/>
</vehicle>
<vehicle id = "veh19" type= "veh_passenger" depart="21630" >
<route edges =" 45342801#5 45342801#5.32 902433317#3 951421968#0 951421968#1 951421968#1.20 -951381446#1 -951368598#0 902433317#6 902433317#7 902433317#8 902433317#8.29 951368593#1 972507120#2 972507120#3 -951369746#4 -951369746#4.24 -951369746#4.27 -951369746#4.29 951369745#0 -951381440 -951369737#0 -951369737#0.5 -951369737#0.11 -951369746#1 -951369746#1.3 -951369746#1.9 -951369746#1.18 -951369746#1.26 -951369746#1.35 -951369741#4 -951379885 -951379885.7 -951379885.13 -951379885.20 -951379885.27 951379886#2 951379886#2.14 951379886#2.19 951379886#2.22 951379886#2.25 951379886#2.28 -951369741#1 -951369741#1.20 -951369741#1.25 -951369741#1.30 45344273#27 45344273#27.17 -897252875#3 -897252875#2 -897252875#2.29 -897252875#0 -897252875#0.4 -897252875#0.15 -897252875#0.35 897252876#3 897252876#4 897252876#5 897252876#5.34 897252876#6 897252876#7 897252876#8 902433295#2 902433295#3 902433295#4 902433295#4.36 902433295#4.49 902433295#5 -951404486#1 -951404486#0 -45344333#1 -45344333#0 45344329#5 45344329#6 45344327#0 45344327#1 897172091#12 -950400189 45344335#7 45344320#7 45344320#7.38 45344320#7.55 45344320#7.60 45344320#7.63 45344320#7.67 45344320#7.80 45344320#7.86 -950235691#1 -950235691#0 -950235691#0.4 950235690#1 -45344335#3 950400190 -897172091#9 -897172091#8 -897172091#6 -951404496 -951404496.25 -951404496.29 -951404496.31 -951404496.34 -951404496.36 897252883#1 699875130#3 699875130#3.37 -897172091#0 -45344294#6 -45344294#6.9 -45344294#6.25 -45344294#5 -45344294#5.7 -45344291#4 -45344291#4.36 -951370958 45344288#1 45344288#1.10 45344288#1.64 45344288#1.123 45344288#1.180 45344288#2 -45344295#0 951384595#0 951384595#0.37 951384595#0.57 951384595#0.95 951384595#0.97 951384595#0.100 951384595#1 951384595#1.2 951384595#1.4 45344290#1 45344292#4 -700249213#4 -700249213#4.10 -700249213#4.16 -700249213#4.21 -700249213#4.79 -897252868#0 -897252868#0.12 -897252868#0.33 -897252868#0.71 -897252863#5 -897252863#3 -897252863#2 951370975 951370976#1 45344290#3 45344290#3.33 45344290#3.44 45344290#3.54 45344290#4 45344290#5 45344290#5.39 45344290#5.109 -45344294#0 -45344304#5 -45344286#12 -45344286#11 -45344286#9 -45344286#9.15 -45344286#9.41 -45344286#9.67 -45344286#8 -45344286#7 -45344286#6 -45344286#6.52 -45344286#4 -45344286#4.11 -45344286#3 -45344286#3.9 -45344286#3.30 -45344286#3.45 -45344286#2 -45344286#2.12 -45344286#2.42 951440588 951440588.19 951440588.23 951440588.28 951440588.33 951440588.54 951440588.59 951440588.67 951440588.90 951440588.105 951440588.109 951440588.113 951440588.119 951440588.124 951440588.129 951440588.138 951440588.140 951440588.143 951440588.148 951440588.162 951440588.168 951440588.174 951440588.183 951440588.193 951440588.221 951440588.225 951440588.229 951440588.234 951440588.238 951440588.244 951440588.248 951440588.251 951440588.254 951440588.258 -951384601#1 951384600 -702632123#2 -702632123#1 -702632123#1.4 -951404495 -951384610#0 45344272#12 45344272#13 45344272#13.4 45344272#13.35 45344298 896892974 971495602#11 971495602#12 971495602#12.26 971495602#12.77 951442813 951442812#0 -896786335#50 -896892981#13 -896892981#13.5 -896892981#13.13 -951349911#1 -951349910#1 -951349910#1.29 951354767 -896892981#10 -896892981#10.8 951354779 951354779.19 951354779.26 951354779.35 951354779.44 -896786335#46 951358828 951358828.11 951358828.13 951358828.16 951358828.19 951358828.22 951358828.26 951358828.29 951358828.32 951358828.42 951358828.46 951358828.50 951358828.53 951358828.57 -896786247#8 -908869236 -908869236.10 -908869236.25 -908869236.28 -908869236.31 -908869236.34 -908869236.36 -908869236.38 -908869236.41 -908869236.82 -908869236.85 -908869236.89 -908869236.92 -908869236.95 -908869236.97 -908869236.100 -896786335#43 -896786335#42 -896786335#42.22 -896786335#41 -896786335#40 -896786335#39 -896786335#39.27 -908869251 -908869251.5 -908869251.7 -908869251.10 -908869251.12 -908869251.30 -908869251.35 -908869251.40 -908869251.44 -908869251.48 -908869251.66 -908869251.70 -908869251.73 -908869251.76 -908869251.78 896786248#1 896786248#1.30 896786248#1.43 -896786335#34 -896786335#33 -951354773#3 -951354773#3.20 -951354773#3.23 -951354773#3.26 -951354773#3.28 -951354773#3.30 -951354773#3.32 -951354773#3.34 -951354773#3.38 -951354773#3.40 -951354773#3.43 -951354773#3.45 -951354773#2 -951354773#2.2 -951354773#2.27 -951354773#2.50 -951354773#2.74 -951354773#2.80 -951355289#1 -951355289#0 896893016#0 896893017#0 896893017#1 -896786335#28 -896786335#27 -896786335#27.19 -896786335#26 -896786335#24 -896786335#23 -896786335#23.44 -896786335#22 -896786335#21 -896786335#21.41 -896786335#19 -951995495 -909024243#0 -909024244#0 -896786335#17 -896786335#17.2 -896786335#16 -896786335#16.7 -896786335#15 -896786300#3 -896786300#3.27 -896893012#1 -896893012#0 -896893012#0.11 -896786303#4 -896786303#4.22 -896786303#3 896786302#0 896786302#0.18 896786302#0.77 896786302#1 896786304#6 951983587#7 -951983588#1 -951983588#0 -951983586#0 -896786303#0 896786311#13 896786311#13.28 -896786335#10 -896786335#10.38 -896786335#9 -896786335#8 -896786335#8.39 -896786335#7 -896786335#6 -896786335#4 -896786335#4.18 -896786335#3 -896786335#3.10 -896786335#2 951976001#0 -951976002 -951976000#1 -951975999 877395784#15 -951946803#2 951946816#14 951946816#15 877395784#19 951951639#0 951946803#0 951946795#1 951946795#2 951946795#3 951946795#4 951946795#6 951946795#7 951946795#9 951946795#10 951946795#11 951946795#11.34 951946795#11.40 951946795#11.45 -951887683 -951887684 -951887682#6 951887695#5 -951887700#19 -671756019#4 -671756019#3 951961253 951961253.63 951961253.68 951961253.73 951961233#1 -951878265#2 -951878263#0 -951878263#0.69 -951878263#0.76 951961251#0 951961247#0 951961248#0 951961248#1 -876509484#6 -876509484#6.3 -876509484#6.8 -876509484#6.12 -876509484#6.15 951878264#0 951878264#0.74 951878264#2 951878263#4 -951878269#15 -951891772#2 -951891772#1 -951891772#0 -951878266#2 -951878266#1 -951878266#1.39 -951878266#1.47"/>
</vehicle>
<vehicle id = "veh20" type= "veh_passenger" depart="21630" >
<route edges =" -45342801#4 45342799#23 45342799#25 45342799#25.7 45342799#25.22 45342799#26 45342799#27 45342799#27.15 45342799#27.20 45342799#27.25 45342799#27.36 972507120#0 -903341083#3 -903341083#2 -903341083#1 -951368605#2 -951368605#1 -951368605#0 -45342811#0 -45342801#0 45342798#2 45342809#4 45342810#0 45342838#0 45342838#1 -671416442#2 -671416442#1 -671416442#0 -671416444#0 -45342840#1 -45342840#1.23 -45342840#1.27 -45342840#1.31 -45342840#1.34 -45342840#1.38 -45342840#0 -45342798#0 -45344273#21 -45344273#21.28 -951441770 45342810#5 45342810#6 45342810#6.38 44740885#17 902433295#0 902433295#0.35 902433295#1 897252876#9 897252876#10 -45344293#3 -45344293#2 -45344293#2.10 -45344293#2.11 -45344293#2.12 -45344293#2.14 -45344293#2.15 -45344293#2.16 -45344293#2.18 -45344293#1 -45344293#1.78 -45344293#0 -45344273#13 -45344273#12 -45344273#11 -45344273#10 -45344273#10.42 -45344273#9 -45344273#8 -45344273#8.10 -45344273#7 -45344273#7.22 -45344273#6 -45344273#6.40 -45344273#6.59 -45344273#5 -45344273#5.6 -45344273#5.15 -45344273#4 -45344273#4.8 -45344273#4.37 -45344273#3 -45344273#3.6 -45344273#3.14 -45344273#3.31 -45344273#3.48 -45344273#2 -45344273#2.6 -45344273#2.24 -45344273#1 -45344273#1.7 -45344273#0 -897252881 -45378637#10 45378639#7 -951404483#2 -951404484#9 -951404484#9.20 -951404484#8 -951404484#6 951404482 45378639#9 45378639#10 45378639#11 45378639#12 45378639#12.8 -45344310#1 -45344310#0 -45344310#0.10 -45344310#0.18 -45344310#0.30 -45344310#0.41 -45344310#0.52 971495602#8 971495602#8.24 971495602#8.86 45340579#6 -908560887#8 -908560887#8.9 -908560887#8.22 -908560887#8.29 -908560887#8.34 -908560887#8.39 -908560887#8.43 -908560887#8.49 -908560887#8.57 -908560887#8.62 -908560887#8.67 -908560887#8.71 -908560887#7 -908560887#7.10 -908560887#7.18 -908560887#7.26 -908560887#7.31 -908560887#7.34 -908560887#7.37 -951435494 -951435494.8 -951435494.19 -951435494.25 -951435494.33 -951435494.43 -951435494.50 -951435494.55 -951435494.60 -951435494.65 -951435500 -951435500.28 -951435500.32 -951435500.35 -951435500.37 -951435500.40 -951435500.48 -951435500.51 -951435500.54 -951435500.57 -951435500.60 -951435500.63 -951435500.67 -951435500.70 -951435500.74 -951435500.78 -951435500.92 -951435500.96 -951435500.100 -951435500.103 -951435500.108 -951435500.117 -951435500.121 -951435500.125 -951435500.137 -951435500.141 -951435500.145 -951435500.148 -313316104#3 -313316104#2 -313316104#2.13 -313316104#2.35 -313316104#2.44 -313316104#1 -313316104#0 -313316082 -45378649#12 896786247#0 896786247#0.38 908869233 -908869244#0 -908869250#1 -908869250#0 -908869250#0.11 -908869250#0.41 -45378649#10 -45378649#10.20 -951355292 -951355298#1 -951355298#1.5 -951355298#1.10 -951355298#0 -951355298#0.4 -951354759#1 -951354759#1.6 -951354759#0 -951354759#0.4 -951354759#0.15 -951354759#0.20 -951354759#0.24 -45378649#5 -45378649#5.24 -45378649#5.57 -45378649#5.68 951354762#0 951354762#0.9 951354762#0.12 951354762#0.15 951354762#0.18 951354762#0.94 951354762#0.96 951354762#0.97 951354762#0.99 951354762#0.100 951354762#0.102 951354762#0.106 951354762#0.107 951354762#0.109 951354762#0.110 951354762#0.112 951354762#0.127 951354762#0.129 951355295 -896786262#3 -896786262#3.9 -896786262#1 -951354764#1 896786263#2 896786263#2.22 896786263#4 -951358821#2 -951358821#2.84 -951358821#2.87 -951358821#2.89 -951358821#2.91 -951358821#2.98 -951358821#1 -951358822#1 -951358822#1.32 -951358822#1.34 -951358822#1.36 -951358822#1.37 -951358822#1.39 -951358822#1.41 -951358822#1.61 -951358822#1.65 -951358822#1.67 -951358822#1.69 -951358822#1.71 -951358822#1.74 -951358822#1.88 -951358822#0 -951358822#0.4 -951358822#0.8 -951358822#0.13 -951995493#1 -951995493#0 -951995491#1 -951995491#0 -896786266#12 -896786266#11 -896786266#11.7 909024253#0 909024253#1 909024253#1.45 909024253#2 909024253#2.16 909024252#1 -896786266#7 -896786266#6 -896786266#6.39 896786260#1 896786260#1.37 896786260#3 896786257#1 896786257#2 896786257#2.28 896786257#2.57 896786257#3 896786257#3.14 896786257#4 896786257#5 896786257#6 896786257#6.8 896786257#6.44 896786257#6.53 896786257#7 896786257#7.17 896786257#7.37 896786257#7.44 896786257#7.49 896786257#7.54 -45378665#1 -45378665#0 -45378665#0.39 -45378665#0.75 -896786335#14 -896786335#14.27 909024236#1 909024236#1.12 909024236#1.82 909024239#1 909024239#1.17 909024239#2 909024239#2.40 877398366#3 877398366#4 -904371457 904371458#0 904371458#0.18 904371458#1 877396860#6 877396860#7 -951995474 -904371460#0 -904371460#0.8 904371462#2 877398366#11 877398366#11.20 877398366#12 -671191680#14 -671191680#13 -671191680#11 -671191680#9 -904371467#2 -904371467#2.49 -904371467#2.113 904371464 896786325#1 -896786328#1 -896786328#0 -896786328#0.177 -877395784#20 -877395784#19 -951946816#15 -951946816#14 -951946816#13 -951946816#13.3 -951946816#13.8 951951634#0 951951634#1 951951634#1.75 951951634#1.79 951951634#1.82 951951634#1.86 951951632#2 951951632#2.8 951951632#2.12 951951632#2.16 -951946833#5 951975993 951951631#1 951951636 951946817#5 -951946833#3 951951641 -951946817#2 -951951640 -951946833#1 -951946816#11 -951946816#10 -951946816#9 -951946822 951946821#2 -951946820#0 951946819#1 -951946818#2 -951946818#0 951946833#9 951946833#9.22 -951951630 -951946806#1 -951946806#1.48 -951946806#1.55 -951946806#1.61 -951946806#1.69 -951946806#1.82 -951946806#1.90 -951946806#1.98 -951946806#0 -952365020 -952365021 -951878231#2 -951878231#1 -951878231#1.26 -951868611#0 -951951643#4 -951951643#3 -951951646 -951951642#2 -951951642#1 -951951642#0 951878263#6 951878263#7 951878263#8 951878230#4 -951891772#4 -951961237 951891766#3 951878270#0 951878270#0.33 951878270#0.36 951878270#0.39 951878270#0.42 951878270#2 951878270#3 951878270#4 -951891764#2 -951891764#1 -951891764#0 -951887660#0 877401978#1 951878266#0"/>
</vehicle>
</routes>
