<?xml version="1.0" encoding="UTF-8"?>
<routes xmlns:xsi="http: // www.w3.org/2001/XMLSchema-instance" xsi:noNamespaceSchemaLocation="http: // sumo.dlr.de/xsd/routes_file.xsd">
<vType id="veh_passenger" vClass="passenger"/>

<vehicle id = "veh0" type= "veh_passenger" depart="0" >
<route edges =" -45342801#4 -45342801#3 -45342801#2 -45342801#1 -45342801#0 45342798#2 45342798#3 45342798#4 45342798#5 45342813#0 45342813#1 45342813#2 -45342814#1 44740902#11 44740902#12 44740902#13 44740902#14 44740902#14.81 44740902#14.94 -874839172#0 -44740943 -313316091#20 951438760#0 951438760#1 -44740929#4 -951438759 44740922#2 44740922#2.25 44740953#0 44740953#2 44740953#3 44740953#4 44740953#5 44740953#6 44740953#7 44740949#2 -44740919#1 -44740919#0 44740920#8 -313316091#0 -313316091#0.27 -313316091#0.72 -313316091#0.80 -971495601#9 -971495601#9.28 -971495601#8 -971495601#7 -971495601#6 -971495601#5 -971495601#3 -971495601#1 -971495601#0 -313316086 -44739144#26 -44739144#24 -44739144#22 -44739144#21 -44739144#20 -44739144#19 -44739144#19.14 -44739144#18 -877398366#21 -877398366#20 -877398366#19 -877398366#18 -877398366#17 -877398366#17.7 -877398366#16 -877398366#15 -877398366#15.29 -877398366#14 -877398366#14.72 -877398366#13 -671191680#14 -671191680#13 -671191680#11 -671191680#9 -671191680#8 -671191680#6 -896786326#1 -896786326#0 -896786328#0 -896786328#0.177 -951951638#10 -951951638#10.18 -951951638#9 -951951638#8 -951951638#7 -951951638#5 -951951638#4 -951951638#3 -951951638#2 -951946794#1 -951946794#0 951946792#1 896786337#8 896786337#8.8 -951887683 -951887684 -951887682#6 -951887682#5 -951887682#4 -951887682#3 951887692 -951887691#0 -951887682#0 -951887700#14 -951961240#3 -951961240#1 -951961245 951891772#0 -951891773 -951891771#0"/>
</vehicle>
<vehicle id = "veh1" type= "veh_passenger" depart="0" >
<route edges =" 45342801#5 45342801#5.32 902433317#3 902433317#4 902433317#6 902433317#7 902433317#8 902433317#8.29 951368593#1 972507120#2 45342812#0 45342812#1 45342811#2 45342811#2.66 45344273#23 45344273#23.11 45344273#24 -897252873#2 -897252873#1 -897252873#1.42 -897252873#0 -897252873#0.25 897252876#4 45344320#2 45344320#3 -45344331#4 45344327#1 903341090 -45344335#4 -950235690#1 -950235690#0 -950235690#0.14 700254525#11 700254524#0 700254523 -700254525#0 45344272#4 950233988#0 45344283#9 45344283#10 45344283#10.15 45344283#10.46 45344283#10.69 45344283#10.88 45344283#10.150 45344283#10.196 45344283#10.260 45344283#10.377 45344283#10.468 45344283#10.514 670655885 670655885.12 896892975 971495602#12 971495602#12.26 971495602#12.77 951442813 951442812#0 -896786335#50 -896786335#49 -896786335#48 -896786335#48.15 -896786335#47 -896786335#46 -896786335#44 -896786335#44.9 -896786335#44.71 -896786335#43 -896786335#42 -896786335#42.22 -896786335#41 -896786335#40 -896786335#39 -896786335#39.27 -896786335#37 -896786335#36 -896786335#34 -896786335#33 -896786335#32 -896786335#32.17 -896786335#31 -896786335#31.22 -896786335#30 -896786335#29 -896786335#29.17 -896786335#28 -896786335#27 -896786335#27.19 -896786335#26 -951995494#1 -951995491#2 -951995491#1 -951995491#0 -896786266#12 909024250#0 909024250#1 909024250#2 909024250#4 909024250#5 909024250#6 909024239#0 909024239#1 909024239#1.17 909024239#2 909024239#2.40 -951983585 -951975994 -896786324#1 -896786324#0 -896786324#0.19 -896786324#0.132 -896786324#0.177 951951639#0 951946803#0 951946795#1 951946795#2 951946795#3 951946795#4 951946795#6 951946795#7 951946795#9 951946795#10 951946795#11 951946795#11.34 951946795#11.40 951946795#11.45 896786337#10 896786337#10.21 -951887700#20 -951887700#19 -671756019#4 -951961235 951961234#1 -951878265#2 -951878265#1 -951878265#0 951878264#2 -951878263#3 -951878266#4 -951878266#4.37 -951878266#2 -951878266#1 -951878266#1.39 -951878266#1.47"/>
</vehicle>
<vehicle id = "veh2" type= "veh_passenger" depart="0" >
<route edges =" 951370989 951370989.40 951370989.47 951370989.53 951370989.56 951370989.62 951370989.64 951370989.67 -902433320#1 -902433320#0 902433321#2 45342799#21 45342809#0 45342809#1 45342809#2 45342809#3 45342809#4 45342809#5 45342809#6 45342809#7 45342809#8 44740885#10 -45342826#1 -45342826#0 45342825#1 45342825#2 45342828#0 45342828#1 45342828#1.100 -45344273#6 -45344273#6.40 -45344273#6.59 -951384598#3 -951384598#2 -951404491 -951404491.16 -951404491.28 -951404491.40 -951404491.51 -951384599#0 700249213#9 700249213#10 700249213#11 45342808#10 45342808#11 45342808#11.24 45342808#12 -897252871 -897252870 -45344310#2 -45344310#1 -45344310#0 -45344310#0.10 -45344310#0.18 -45344310#0.30 -45344310#0.41 -45344310#0.52 971495602#8 971495602#8.24 971495602#8.86 -313316104#6 -45378650#5 -45378650#5.11 -45378650#4 45378645#0 45378645#0.44 -908846596#3 -908846596#2 45378650#1 -908846593 -908846593.73 908560901#8 908560901#8.23 908560901#8.56 -313316104#0 -313316082 -45378649#12 896786296#0 896786296#1 896786296#1.36 -896786262#6 -896786262#6.15 -896786262#5 -896786262#4 -896786262#4.31 -896786262#3 -896786262#3.9 -896786262#1 -896786262#0 -896786262#0.33 -896786262#0.115 -896786260#1 -896786260#1.5 -896786260#0 -896786260#0.52 896786257#4 909024248 909024248.50 -45378665#3 -45378665#3.29 -45378665#3.50 -45378665#2 -45378665#2.36 -45378665#1 -45378665#0 -45378665#0.39 -45378665#0.75 -896786335#14 -896786335#14.27 -896786335#13 -896786335#12 -896786335#12.15 -896786335#11 -896786335#10 -896786335#10.38 -951976010#1 -951976011#0 896786321#2 -896786320#3 -896786320#3.5 -896786320#1 -896786320#0 -896786316#3 -896786316#2 -896786316#1 -896786316#1.33 -896786314 -951930663#1 -951930663#0 -877395784#11 -877395784#11.58 951946825#0 951946825#1 -951946816#4 951946844 877399011#1 951946810#2 -896786337#14 -896786337#14.40 -896786337#14.111 -952365020 -952365021 -951878231#2 -951951643#6 -951951643#5 -951951643#4 -951951643#3 -951951643#2 876509484#2 -951951642#1 -951951642#0 -951878263#5 -951878269#15 -951891772#2 -951891774 951891771#2 951878270#2 877401978#0 877401978#1 951878266#0"/>
</vehicle>
<vehicle id = "veh3" type= "veh_passenger" depart="3605" >
<route edges =" -45342801#4 45342799#23 672813677#0 672813677#0.22 672813677#0.51 672813677#1 672813677#1.14 672813677#1.27 672813677#2 903341083#0 -951368605#2 -951368605#1 951368604 -45342801#1 -45342801#0 -45342798#1 45342840#0 -45342810#2 -45342810#1 -45342810#0 -45342809#4 45342798#3 45342798#4 45342798#5 45342813#0 45342817#0 45342816#0 -951370984#0 -45342803#6 -45342803#5 -45342803#4 45342821#0 45342821#1 45342821#1.9 45342809#10 45342809#10.44 45342809#11 -45342831#3 45342822#0 -45342832#1 -45342832#0 -45342804#2 45342831#0 951421967 -951417480#0 45342805#4 45342809#14 45342824#0 -45342833#2 -45342833#1 -45342833#0 -45342809#16 -951417479 45342805#2 951417481 -951417482#0 -45342805#0 -45342805#0.29 -45342808#2 -45342808#1 -45342808#1.101 -45342844 -45342843#0 -44740957#1 -44740957#0 45342803#1 -45342802#2 -45342802#1 -671399056 -671399058#1 -671399058#0 -44740885#3 -44740901#6 -44740901#5 -44740901#4 -44740901#3 44740957#6 44740957#7 951417474 44740896#2 974189220#2 -44740895#3 -44740895#2 -44740895#2.69 44740972#0 951417475#0 951417475#1 -671399049#1 -671399049#0 -671399051#0 -44740942#1 -44740942#0 974189220#5 902433296 44740967#0 44740929#7 -951439009 44740962#2 -44740930#15 44740963 -44740962#0 44740960#1 44740929#9 44740929#9.20 -951421954 -951421954.20 -44740930#12 44740929#0 44740929#1 44740929#2 44740929#3 672215965#0 672215965#0.11 672215964 -951438760#0 -313316091#19 -313316091#18 -313316091#18.26 -313316091#17 -313316091#16 45378639#0 45378639#0.48 45378639#1 45378639#1.38 45378639#2 45378639#2.25 45378639#2.39 951439125#0 951439125#0.15 951439125#0.23 951439125#0.33 -951439124 -951439124.39 -951439124.43 -951439124.48 -951439124.52 45378639#4 -699869913 -699869913.14 -699869913.19 -699869913.23 -699869913.28 -45378640#3 -45378640#2 45378658#3 -45378683#3 -45378653#6 -45378685#3 -45378685#2 671178935 45378684#1 -45378655#2 -45378683#1 45378689#0 45378689#1 45378689#2 -45378690#1 -45378691 -45378682#0 -45378682#0.30 -44740946#1 -44740946#0 -44740945#0 -44740940#0 -44740953#2 -44740953#0 44740922#3 44740922#5 44740922#5.74 44740922#6 -44740989#1 -44740989#0 44740925#1 44740925#2 44740955#0 951358803 -44740926#3 -44740926#2 44740924#0 44740924#1 -44740927#15 -44740927#14 -44740927#13 -44740927#12 -44740927#11 -951358801 -44740953#5 44740951#0 44740951#1 44740949#1 44740949#2 -44739163#19 -44739163#18 -44739163#17 -44740926#8 -951358806#1 951358805#0 951358805#1 -44740928#1 -44740928#0 -44740928#0.75 -44740930#6 -44740930#5 44739156#14 44740981#0 44740983#0 -44740985#1 44740987 -951366798 -951366798.30 -951366798.39 -951366798.48 -951366798.59 -951366798.70 -951366798.78 -951366798.83 -951366798.89 951358797#3 -951358800#0 -44740918#1 44740931#0 -44740919#0 44740920#8 -313316091#0 -313316091#0.27 -313316091#0.72 -313316091#0.80 45340579#18 45340579#18.164 45340579#19 45340579#19.12 45340579#19.84 909019791#0 909019791#1 -909019788 909019789#2 -909019790#0 -909019790#0.12 44740932#2 44740916#8 44740916#9 44740916#9.64 44740916#11 44740916#12 44740916#13 909019768#0 909019768#0.14 909019768#0.25 -909019765 -909019766#0 909019767#1 909019767#1.24 909019767#1.35 -971495601#5 -971495601#3 -971495601#1 -971495601#0 -313316086 -44739144#26 -44739144#24 909024272#0 909024272#0.29 909024272#1 909024272#1.30 909024272#1.53 909024271#1 896786294#11 896786294#11.40 -909024262#1 -909024262#1.12 -909024262#0 -702673217#0 -44739144#18 -877398366#21 952002225#0 952002225#1 877396860#22 44739144#13 671960104#0 671960104#1 671960104#2 671960104#3 671960104#4 671752228#2 671752228#3 -671960101#14 -671960101#13 -671960101#12 -671960101#10 44740913#4 903953323#0 -909778560#0 -909778560#0.13 -44739144#11 -44739144#10 -44739144#9 -904286388#7 -904286388#7.24 -904286388#6 -904286388#6.28 904371479#0 904371479#0.10 904371479#0.23 904371479#0.35 904371479#1 904371479#1.2 904371479#1.8 904371479#1.27 904371479#1.58 904371479#3 896786289#0 896786289#0.42 896786289#1 896786289#1.39 896786289#2 702673217#3 702673217#4 702673217#5 896786276 896786276.34 -896786277#0 877398366#16 904286386#0 909024293#2 909024293#3 -896786290#4 -896786290#4.18 -896786290#3 -896786290#2 -904286383#1 -904286384#1 -904286384#1.25 -904371470#1 -904371470#0 -904371473#0 904371474#1 -904371472#1 -904371472#1.50 904371471 904371473#3 -904286388#0 -904286386#6 -904286385#15 -904286385#15.42 -904286385#13 -904286385#13.24 -904286385#12 951992355 904286380#0 904286380#1 904286380#1.17 904286380#1.44 904286380#2 904286380#3 904286380#3.65 -877398366#14 -877398366#14.72 -904286382#4 -904286382#4.34 -904286382#3 -904286382#2 -904286382#1 -904286383#4 -904286379 -904286381#2 -904286381#0 671191680#13 -877396860#10 -896786284#1 -877398366#11 -877398366#11.11 -877398366#9 896786286#0 896786286#0.25 896786286#1 896786286#1.15 896786286#2 896786286#2.19 -896786292#4 -896786292#4.15 -896786287#1 951995479#1 877398520#2 877398520#2.17 -896786292#2 -896786292#2.20 -896786292#2.58 -896786292#0 -896786292#0.39 951995475#2 -896786288#1 896786291#1 896786291#1.19 -904371457 904371458#0 904371458#0.18 904371458#1 904371465#0 904371465#1 -904371466 -904371466.129 -904286375#3 -904286375#2 -904286375#2.19 904286373#0 -951975997 -671191680#8 -671191680#6 -896786326#1 -896786327#1 -896786327#1.48 -896786327#1.55 -896786327#1.60 -896786327#1.64 -896786327#1.68 -896786327#1.74 -896786327#1.124 -896786327#1.170 -896786327#1.205 -896786327#1.211 -896786327#0 877395784#22 877395784#22.56 904371492#0 904371492#0.68 904371492#2 -904371491 -904286385#2 -904286385#1 -904286385#0 -952002224#7 -952002224#7.17 -952002224#7.71 -952002224#6 -952002224#5 -952002224#5.5 -952002224#4 -952002224#4.27 -952002224#3 -952002224#3.30 -952002224#3.48 -952002224#3.80 904286410#0 904286410#0.33 904286409#0 904286409#1 904286409#2 904286409#2.7 -951874859#0 951874858#0 -951874860#4 -951874860#3 -904286402#0 -904286410#2 -904286411#3 951874850#0 -951874849#1 -951874849#0 -951874848#0 -952002224#1 896786337#4 951951638#0 -952000397 951951639#15 896786337#6 896786337#7 896786337#8 896786337#8.8 -951887683 -951887684 -951887682#6 -951887682#5 951887686#0 951887686#1 -951887700#18 -951887700#17 -951887700#17.17 -951887689 -951887688#0 -951887687#0 -951887687#0.5 -951887682#3 -951887682#2 -951887682#2.37 -951887682#1 -951887682#1.2 -951887682#1.5 -951887682#0 -951887700#14 -951961240#3 -951961240#1 -951961245 951891772#0 -951891773 -951891771#0"/>
</vehicle>
<vehicle id = "veh4" type= "veh_passenger" depart="3605" >
<route edges =" 45342801#5 45342801#5.32 902433317#3 902433317#4 902433317#6 902433317#7 -951368596 45342799#27 45342799#27.15 45342799#27.20 45342799#27.25 45342799#27.36 972507120#0 972507120#2 972507120#3 -951366780#1 -951366780#1.2 -951366780#1.41 951366779#0 951366779#1 45342812#1 45342811#2 45342811#2.66 45344273#23 45344273#23.11 45344273#24 -897252873#2 951379889 951379889.24 951379889.29 951379889.37 951379889.42 951379889.48 -951379890#0 -951379890#0.11 -951379890#0.26 -951379890#0.32 -951379890#0.35 -951379890#0.37 -951379890#0.41 -951379890#0.82 -951379890#0.84 -951379890#0.86 -951379890#0.88 -951379890#0.89 -951379890#0.91 -951379890#0.93 -45344320#0 -45344320#0.48 -45344320#0.63 -45344320#0.71 -45344320#0.79 -45344273#19 45344322#0 -951404485 -45344321#0 -45344273#17 -45344273#17.20 -45344273#17.31 -45344273#16 -45344273#16.5 -45344273#16.30 902433295#0 902433295#0.35 902433295#1 902433295#2 902433295#3 902433295#4 902433295#4.36 902433295#4.49 902433295#5 -45344326#0 -45344326#0.20 -45344326#0.39 45344330#1 -45344333#0 45344329#5 45344329#6 45344329#7 45344320#3 45344320#4 -897172091#13 -897172091#12 -897172091#10 -950400190 45344335#3 -950235690#1 -950235690#0 -950235690#0.14 700254525#11 700254525#12 700254525#12.12 950235692#0 950235694#3 -950235703#3 -950235703#2 -950235703#2.9 950455053 950235692#2 950235697#0 950732875#0 950732875#1 -950235694#1 950235695#3 -45344336#5 950235700#0 950235700#1 950235697#4 950235697#4.10 950235697#4.13 950235697#4.16 950235697#4.19 950235697#4.22 45344272#2 45344272#2.46 -45344336#3 -45344336#2 950553578#1 950553577#0 950553577#0.25 950553577#1 950553577#1.2 950553577#1.9 950553577#1.16 950553577#1.22 950553577#1.27 950553577#1.34 950553577#1.44 950238191 950238191.37 -45344283#0 -950641816#13 -950641816#13.116 -950238188#4 950641814 950641815#1 950641815#1.5 950641815#1.10 950641815#1.17 -950641813#0 -950641813#0.15 -950641813#0.21 -950641813#0.27 950241847#6 950553571 950553571.38 950553571.41 950553571.44 950553571.54 950553571.56 950553571.58 950553571.66 950553571.68 950553571.71 -950241847#4 -950241847#3 45344284#9 45344271#6 45344271#6.35 45344271#7 45344271#7.34 950235733#0 950235732#2 950641808 950641808.26 950641808.28 950641808.30 950641808.33 950641811#1 950641811#1.3 950641811#1.11 950641811#1.19 950641812#2 950235733#2 950235733#2.14 950235733#2.26 950235733#2.39 950235733#2.49 950235729#3 950235730#1 -950872165#1 -950872165#0 -45344285#6 -951077739#2 -951077739#2.26 -951077739#2.30 -951141446 -951141446.24 -951141446.29 -951141446.35 -951141446.41 -951141446.45 -951141446.50 -950241823#0 -45344285#2 -45344285#1 950235732#5 950235732#5.16 951077734#0 -950241846#1 -950241846#1.22 951043903 950241823#3 45344284#12 45344284#12.58 950872160#0 950872160#1 950872160#1.50 950872160#1.69 950872160#2 950872160#2.4 950872160#3 950872160#4 950872160#4.25 950241832#0 -950929127#5 -950929127#4 -950929127#4.20 -950929127#3 -950929127#3.15 -950929127#2 -950929127#1 950241823#5 950241818#3 950241825#1 950241825#1.27 950241821#7 950241821#7.29 950241821#8 951043906#0 951043906#0.33 951043906#0.36 951043906#0.40 -950241819#4 -950241819#3 -950241819#2 -950241819#1 -950241819#0 -950929121#0 -950929121#0.32 -950929121#0.37 -950929121#0.41 -950929121#0.44 -950241818#1 -950241818#1.42 -950241818#0 -45344271#3 -45344271#3.75 -950241848#5 -950241848#5.35 -950241848#4 950241855#0 950241855#1 -950241851#1 -950241851#0 950241857#4 -950243393#0 -45344282#6 -45344282#6.21 -45344282#6.99 950241848#0 -950241857#2 -950241857#1 -950241857#1.47 -950241857#1.51 -950241857#1.55 -950241857#0 950241861#1 951043905#0 950241859#0 950241859#0.58 950241859#0.62 950241859#0.66 950241859#1 950241847#1 -902433322#1 -902433322#1.57 -902433322#0 -902433322#0.69 -45344282#4 -45344284#6 -45344284#5 -45344284#4 -950238192#4 -950238192#3 950241233#2 950241233#3 -950241866#7 -950241866#7.13 -950394092 950394093#2 950394093#2.2 950241869#4 950238192#1 950238192#1.16 -950392117#1 950392116#0 950392116#0.39 -950241229#1 -950241229#0 -950241233#0 45344280#11 45344280#11.11 45344280#11.23 45344280#12 45344284#0 -950553572 -950238193#0 45344280#14 45344280#14.13 45344280#15 45344283#5 -950553582#2 -950553582#2.27 950553580#0 950553579 950553579.70 950553579.75 950553579.82 -950553581#0 -950553581#0.8 -950553581#0.15 -950553582#0 -950553582#0.6 950233989#1 950233989#1.12 950233989#1.21 -700278833#4 -950233988#2 -950233988#2.21 -950233988#2.33 -950233988#1 -950233988#1.32 -950233988#0 45344272#5 950389247#0 950389247#0.52 950389247#0.95 950389247#0.101 950389247#0.109 -951441775 -951441775.15 -951441775.28 -951441775.39 -951441775.47 -951441775.60 951381432#1 951381432#1.2 951381432#1.5 951381432#1.8 -897252850#3 -897252849 -897252852#3 -897252852#1 -897252852#1.36 897252851 -45344304#0 45344272#10 45344272#10.38 45344272#11 45344272#11.35 45344272#12 45344272#13 45344272#13.4 45344272#13.35 45344298 896892974 971495602#11 971495602#12 971495602#12.26 971495602#12.77 951442813 951442812#0 -896786335#50 -896786335#49 -896786247#9 -896786247#9.8 -896786247#9.17 -896786247#9.75 -896786247#9.157 -896786247#8 -896786247#7 -896786247#7.2 -896786247#6 -896786247#6.66 -896786247#6.103 908869245 908869245.23 908869249#1 -908869246 -908869247 -908869248#2 -908869248#1 -908869248#1.4 -908869248#1.6 -908869248#1.9 -908869248#1.11 -908869248#1.19 -951358827#2 -951358826 -951358826.10 -951358826.13 -951358826.16 -951358826.19 -951358826.36 -951358826.40 -951358826.44 -951358826.49 -896786335#42 -896786335#42.22 -896786335#41 -896786335#40 908869238 908869238.11 -908869250#2 -908869250#2.29 -908869250#2.76 -908869250#2.143 -908869250#1 -908869250#0 -908869250#0.11 -908869250#0.41 -45378649#10 -45378649#10.20 -951355292 -951355298#1 -951355298#1.5 -951355298#1.10 -951355297#1 -951355297#0 896786248#0 896786248#0.6 896786248#0.16 896786248#0.93 896786248#0.127 896786248#0.165 896786248#0.179 896786248#0.211 896786248#1 896786248#1.30 896786248#1.43 -896786335#34 -896786335#33 -876614662#9 -876614662#9.32 -951354772#1 -951354772#1.39 -951354772#1.50 -951354772#1.59 -951354772#0 -951354772#0.6 -951355289#1 -951355289#0 896893016#0 896893016#1 896893015#2 896893015#3 -896893018#0 -877388728#13 -877388728#13.55 -877388728#11 -896893005#1 -951995485 -896893003 896893013#6 896893013#6.11 951995483 896893004#3 896893004#3.24 896893004#4 896893004#5 896786335#24 896786335#26 951358823 951358823.10 951358823.15 951358823.20 951358823.26 951354763#3 951354763#4 951354763#5 951995492#1 -896786265#0 909024253#0 909024253#1 909024253#1.45 -896786293#7 -896786293#6 909024251 909024251.27 -909024250#2 -909024243#1 -909024243#1.11 -909024243#1.69 -909024243#1.72 -909024243#1.74 -909024243#1.78 951995495 896786335#19 -896893011#1 -896893012#6 -896893012#6.12 -896893012#5 -896893012#5.11 -896893012#4 -896893007#1 -896893007#1.18 -896893008#1 -896893008#0 896786300#2 896786300#2.40 896786300#2.70 896786300#3 896786300#3.17 -896786335#14 -896786335#14.27 909024236#1 909024236#1.12 909024236#1.82 909024239#1 909024239#1.17 909024239#2 909024239#2.40 877398366#3 951995475#4 904371460#5 -896786328#3 -896786328#3.70 -896786328#2 -896786328#2.49 896786325#2 896786325#3 -896786323#0 -896786323#0.137 -896786323#0.139 -896786323#0.141 -896786324#0 -896786324#0.19 -896786324#0.132 -896786324#0.177 951951639#0 951951639#1 951951639#3 951951639#4 951946801 951946795#3 -951946800#1 951951639#7 -951973430#1 -951951638#4 951946798#1 951946798#2 951946795#7 -951946797 951951639#11 951946796#0 951946796#1 951946795#10 951946795#11 951946795#11.34 951946795#11.40 951946795#11.45 896786337#10 896786337#10.21 -951887700#20 671756019#0 -951961251#1 -951961251#0 876509484#8 876509484#8.5 951961233#0 951961233#0.22 951961233#0.27 951961233#0.32 951961233#0.37 951961233#1 -951878265#2 951878263#1 951878263#1.39 951878263#1.46 951878263#1.53 951878263#1.72 951878263#1.75 951878263#2 951878263#2.2 -951878266#4 -951878266#4.37 -951878266#2 -951878266#1 -951878266#1.39 -951878266#1.47"/>
</vehicle>
<vehicle id = "veh5" type= "veh_passenger" depart="3605" >
<route edges =" 951370989 951370989.40 951370989.47 951370989.53 951370989.56 951370989.62 951370989.64 951370989.67 -902433320#1 -902433320#0 902433321#2 45342799#21 45342809#0 951368600#0 -951368603#1 951368601#0 -951368602#1 -951368602#0 -45342835#0 -45342797#0 45342834#2 45342809#3 45342809#4 45342809#5 45342809#6 45342809#7 45342809#8 44740885#10 44740885#11 44740885#11.48 44740885#11.52 45342829 45342827#1 -45342826#0 45342825#1 -45342824#4 45342823#2 45342828#1 45342828#1.100 -951384596#1 -951384596#1.24 -951384596#1.31 -951384596#1.36 -951384596#1.46 -951384596#1.54 -951384596#1.60 -951384596#1.72 -951384596#1.107 -951417467 -951417467.14 -951417467.15 -951417467.17 -951417467.18 -951417467.21 -951417467.23 -951417467.24 -951417467.25 -951404491 -951404491.16 -951404491.28 -951404491.40 -951404491.51 -951384599#0 -700249213#7 -700249213#7.47 -700249213#7.56 -700249213#7.59 -700249213#7.61 -700249213#7.65 -700249213#6 -700249213#5 -700249213#5.52 -45344292#4 45344290#2 -951370976#1 -951370975 897252863#2 897252863#3 897252863#5 897252868#0 897252868#0.17 897252868#0.55 897252868#0.76 897252868#1 897252868#1.11 897252868#1.31 -45344314#4 -45344314#4.42 -45344315#2 -897252860#1 -897252860#0 897252868#3 897252868#3.16 897252868#4 -897252869#2 -897252869#1 -45344315#0 -45344315#0.31 -700249213#10 700249212#0 700249212#1 700249212#3 45342808#9 45342808#10 45342808#11 45342808#11.24 951417471 951417471.18 951417471.38 951370965#1 951370965#1.28 951370965#1.49 45344314#2 700249213#0 700249213#1 897252867#0 897252867#0.29 897252867#0.37 897252867#0.64 897252867#0.82 897252867#1 897252867#1.15 897252864#0 897252864#1 897252864#3 -897252871 -897252870 -45344310#2 -45378639#12 -45378639#12.97 -951404475 -951404475.33 -951404475.43 -951404476 -951404476.16 -951404476.32 -951404476.50 -951404476.59 -951404476.68 -951404476.84 -951404476.93 -951404476.101 -951404476.106 -951404476.113 971495602#7 971495602#7.32 971495602#7.56 971495602#8 971495602#8.24 971495602#8.86 45340579#6 45340579#7 45340579#7.32 45340579#7.82 45340579#7.134 45340579#7.159 45340579#7.185 45340579#8 45340579#8.28 45340579#8.73 -45378643#7 -45378643#7.12 -45378643#6 -45378643#6.10 -908560880 -908560880.49 -908560880.83 908560881#4 908560881#4.14 908560867#0 908560867#0.11 908560867#1 -951404468#1 -951404468#1.18 -951404468#1.33 -951404468#1.62 -951404468#1.64 -951404468#1.65 -951404468#1.66 -951404468#1.67 -951404468#1.69 -951404468#1.79 -951404468#1.80 -951404468#1.83 -951404468#1.85 -951404468#1.88 -951404468#1.96 -951404468#1.98 -951404468#1.99 -951404468#1.101 -951404468#1.102 -951404468#1.107 -951404468#1.112 -951404468#1.119 -951404468#1.121 -951404468#1.122 -951404468#1.124 -951404468#1.126 -951404468#1.129 -951404468#1.131 -951404468#1.133 -951404468#1.135 -951404468#1.138 -951404468#1.141 951404467#0 951404467#0.8 951404467#0.12 951404467#0.16 951404467#0.31 951404467#0.34 -951435496#1 -951435496#1.16 -951435496#1.17 -951435496#1.18 -951435496#1.19 -951435496#1.20 -951435496#1.22 -951435496#1.27 -951435496#0 -951435494 -951435494.8 -951435494.19 -951435494.25 -951435494.33 -951435494.43 -951435494.50 -951435494.55 -951435494.60 -951435494.65 313316104#5 313316104#5.24 313316104#5.44 313316104#5.58 -45378650#5 -45378650#5.11 45378646#0 45378646#0.20 45378646#1 45378646#2 45378646#2.42 45378646#3 45378646#4 45378646#4.84 45378646#4.109 908560901#3 908560901#4 908560901#4.8 908560901#5 908560901#5.28 908560901#5.87 45378647#0 45378647#0.9 45378647#0.49 908846595#0 908846595#0.61 908846594#0 45378650#0 45378650#0.11 908846596#2 908846595#2 908846595#2.72 -45378650#2 -45378650#2.42 -45378650#2.62 -908846593 -908846593.73 908560901#8 908560901#8.23 908560901#8.56 -313316104#0 -313316082 -45378649#12 896786296#0 896786296#1 896786296#1.36 -896786262#6 -896786262#6.15 -896786262#5 -896786262#4 -896786262#4.31 -896786262#3 -896786262#3.9 -896786261 896786263#1 951354764#1 -896786262#0 -896786262#0.33 -896786262#0.115 896786260#3 896786257#1 896786266#5 -896786260#0 -896786260#0.52 896786257#4 909024248 909024248.50 45378665#5 45378665#5.9 45378665#7 45378665#7.25 45378665#7.48 45378665#8 -896786283#4 -896786283#4.15 -896786283#4.56 -896786283#3 -896786283#3.11 -896786283#2 -909024289#4 -909024289#3 -909024289#3.21 -909024289#2 -909024288#1 -909024288#0 877396033#7 877396033#7.17 877396033#7.62 877396033#7.73 -909024289#0 -909024289#0.2 -909024289#0.5 -909024289#0.10 896786293#2 896786293#2.8 896786293#2.28 896786293#2.36 896786293#2.45 896786293#2.48 896786293#2.52 -45378665#2 -45378665#2.36 -45378665#1 -45378665#0 -45378665#0.39 -45378665#0.75 -896786300#3 -896786300#3.27 -896893012#1 -896893012#0 -896893012#0.11 896786303#5 896786303#5.27 896786303#5.100 896786303#5.124 -896786301 -896786301.70 -896786303#3 896786302#0 896786302#0.18 896786302#0.77 896786302#1 951983592#0 951983592#0.146 951983592#0.152 951983592#0.157 951983592#1 951983592#3 951983592#3.4 951983592#3.8 951983592#3.24 951983592#3.30 -951988579 951988578#1 -951988576#1 -951988574#0 -896786310#4 -896786310#4.9 951983615 951983615.81 951983615.94 -951930617#11 -951930617#10 -951930617#10.5 -951930617#10.15 -951983592#7 -951983592#6 -951983592#6.23 -951983592#6.30 -951983592#6.36 -951983592#5 896786310#7 896786310#7.4 896786310#7.13 896786310#7.40 896786310#7.52 896786310#7.60 896786310#7.68 896786310#7.74 951983608#0 951983608#0.28 951983608#0.31 951983608#0.35 951983608#1 951983609#0 -951983611#0 -951930617#7 -951930617#6 -951930617#5 -951930617#4 951930618#0 951930618#0.26 951930618#0.29 951930618#0.32 951930618#0.35 -951930619 -877389028#0 -877389028#0.33 896786310#9 896786310#9.40 896786310#9.54 896786310#9.61 -951983616#2 -951983616#1 -951983616#0 -951983616#0.12 -951983616#0.15 -951983616#0.18 951983587#4 951983587#4.2 951983587#4.11 951983587#4.15 951983587#4.18 951983587#4.21 951983587#4.31 951983587#5 951983587#6 951983587#7 -951983588#1 -951983588#0 -951983586#0 896786303#1 896786303#1.37 951983587#9 877398366#0 877398366#0.11 -909024237#0 951983583#1 -896786335#11 -896786311#13 -896786311#13.20 -896786311#12 -896786311#12.40 -951976011#1 951976010#1 -896786322 -896786322.14 -896786322.21 -896786323#1 896786325#4 896786325#4.12 896786319#0 896786319#0.19 896786319#1 896786319#1.7 896786319#2 -896786315#4 -951976005 896786317#1 896786317#1.17 896786319#5 896786319#5.19 896786316#0 -896786314 -951930663#1 -951930663#0 -877395784#11 -877395784#11.58 -877395784#10 -877395784#10.22 -877395784#10.43 951946815#0 -951946826 951946825#1 -951946816#4 951946844 877399011#1 951946810#2 -896786337#14 -896786337#14.40 -896786337#14.111 -952365020 -952365021 -951878231#2 -951951643#6 951951644#0 -951951642#4 -951951642#3 -951951642#3.15 -951951642#3.18 -951951642#3.20 -951951642#3.23 -951951642#3.36 -951951642#3.39 -951951642#3.41 -951951642#3.43 -951951642#2 876509484#3 -951951650 -951951648#2 -951951642#0 -951878263#5 -951878269#15 -951891772#2 -951891774 951891771#2 951930613 -951878269#9 -951878269#7 -951878269#6 -951878269#5 -951878269#4 -951878269#2 -951878269#1 -951878269#1.25 -951878269#1.51 -951878269#1.75 -951878269#1.92 -951887655#4 951887656#0 951887656#1 951891765#1 -951887654#2 951878272#2 -951891763#2 -951891763#1 951891765#3 951887660#5 -951887659#0 -904196454#2 -904196454#1 -904196454#1.67 -904196454#0 -700825961#7 -700825961#7.10 -700825961#7.37 -700825961#6 -700825961#6.9 951887666#0 951887701#0 951887700#2 -951887702#0 951887666#2 951887664#1 904196454#5 904196454#6 -951887665 -951961236#0 -951887700#4 904196454#8 904196454#8.42 904196452#6 -951887668#1 951887671#0 -951887673#1 951887669#2 -951887672#2 951887667#7 904196453#12 904196453#12.12 904196453#12.67 904196453#13 951887663#0 951887663#1 951887663#2 951887663#3 951891764#0 951891764#1 951891764#2 -951878270#4 -951878270#3 877401978#0 877401978#1 951878266#0"/>
</vehicle>
<vehicle id = "veh6" type= "veh_passenger" depart="7210" >
<route edges =" -45342801#4 -45342801#3 903341082#0 903341082#0.10 903341082#1 -951368605#1 951368604 -45342801#1 -45342801#0 -45342798#1 45342840#0 45342810#3 45342810#4 45342810#4.21 45342810#5 45342810#6 45342810#6.38 -44740885#16 45342830#1 -973399407#1 -973399407#0 -44740885#13 -44740885#13.4 -44740885#13.21 -44740885#13.24 -44740885#13.27 -44740885#13.31 -44740885#13.35 -44740885#13.56 -44740885#13.59 -44740885#13.62 -44740885#12 -44740885#12.2 -44740885#12.5 -44740885#11 -44740885#11.4 -44740885#11.8 -45342826#1 -45342826#0 -45342825#0 -45342809#10 -45342809#10.53 -45342809#9 -45342809#8 -45342809#7 45342839#0 45342839#1 -45342840#2 671416444#0 671416444#1 671416443#0 671416441 671416442#1 671416440 671416443#2 -45342838#0 -45342810#0 -45342809#4 45342798#3 -45342837 -45342836#0 -45342818#1 -45342817#2 -45342803#7 -45342803#6 -45342803#5 -45342803#4 -45342803#3 -45342803#2 -45342803#1 -45342803#0 -45342843#2 951417477 44740957#1 44740957#2 44740957#4 -671399051#1 -671399051#0 -44740942#1 -44740901#0 -313316089 -951438761 -44740929#5 -44740929#4 672215965#0 672215965#0.11 672215965#1 44740922#1 44740922#2 44740922#2.25 44740922#3 44740922#5 44740922#5.74 44740922#6 44740922#7 44740922#8 955410234 102277232#1 44739167#9 44740930#8 44740925#0 44740989#0 44740923#1 44740926#1 44740926#2 44740926#3 -951358803 44740955#1 44740955#2 44740924#1 -44740927#15 -44740927#14 44739167#12 44739167#13 -44740945#1 44740946#0 44740948#0 -951438765 -313316091#10 -313316091#10.31 -313316091#8 -313316091#8.29 -313316091#6 -313316091#5 -313316091#5.44 -313316091#4 -313316091#4.67 -44739163#20 -44739163#19 -44739163#18 44740927#10 951358806#0 951358805#0 951358805#1 -44740928#1 -44740928#0 -44740928#0.75 -44740930#6 44739163#15 -44740981#1 -44740981#0 44739156#15 44739156#16 -44740927#4 -44740927#3 44740920#3 951358797#0 951358797#0.19 951358797#0.36 951358797#0.45 951358797#0.49 951358797#0.51 951358797#0.53 951358797#0.55 951358797#0.57 951358797#0.58 951358797#0.64 951358797#0.66 951358797#0.68 951358797#0.70 951358797#0.72 951358797#0.75 951358798#0 951358798#0.18 951358798#0.20 951358798#0.23 951358798#0.24 951358798#0.26 951358798#0.29 951358798#0.41 951358798#0.43 951358798#0.44 951358798#0.46 951358798#0.48 951358798#0.51 951358798#0.55 951358798#1 951358798#1.17 44740927#6 44740927#8 -951358800#1 -951358800#0 -44740918#1 44740931#0 -44740919#0 -951358792 -951358792.26 -951358792.42 -951358792.53 -951358792.66 896892969#18 -971495601#9 -971495601#9.28 44740934#0 -668599375#2 -668599375#2.17 -668599375#1 -668599375#1.9 -668599376#2 -668599376#2.24 -668599376#1 -668599376#0 -668599376#0.11 -668599377#0 -668599377#0.24 44740934#4 909019790#0 909019790#0.39 909019790#1 -909019791#0 45340579#20 45340579#20.80 955813297#0 955813297#1 44740916#1 44740916#1.7 44740916#1.16 44740916#2 44740916#2.8 44740916#2.32 44740916#3 -909019776#1 -909019776#1.34 909019774 909019774.53 909019774.58 909019774.63 44740910#3 44740910#4 -44740933#2 -44740933#1 909019789#0 909019789#0.60 909019789#0.65 909019789#0.67 909019789#0.69 44740916#7 44740916#8 44740916#9 44740916#9.64 -909019783 -909019783.98 -45378660#1 -45378660#1.21 -45378660#1.52 -45378660#1.88 -45378660#1.126 -908560900#3 -908560900#2 -908560900#1 951346854 951346854.21 951346854.53 951346854.55 951346854.57 951346854.59 951346854.60 951346854.62 951346854.63 951346854.66 951346854.68 951346854.70 951346854.72 951346854.80 951346854.82 951346854.84 951346854.86 951346854.88 951346854.90 951346854.92 951346855#1 951346855#1.8 951346855#1.24 951346855#1.44 -971495601#1 -971495601#0 -313316086 -44739144#26 -903953334#9 -903953334#9.24 -903953334#9.50 -903953334#9.58 -903953327 -903953327.7 -903953327.18 -903953327.71 903953326#1 -903953325#3 909778546#0 951346849 -44739144#20 909778547#0 -951361609 903953324#1 903953324#1.22 702673217#0 702673217#1 702673217#2 -896786289#2 -877398366#18 -909024294#1 -909024294#0 -909024294#0.55 -877396860#17 -877396860#17.23 909024290 909024290.75 909024293#1 909024293#1.20 909024293#1.34 -904286386#0 -877398366#16 896786277#0 896786278#0 896786278#0.39 -896786279#5 -896786279#4 -896786279#4.27 -896786279#3 -896786279#3.22 -896786269#4 896786267#1 896786267#1.28 896786267#2 -877398366#13 -671191680#14 877396860#11 904286382#2 -904286378#1 -904286378#0 -904286380#2 877396860#13 -896786290#2 904286383#2 904286383#3 904286383#3.17 -904286379 904286381#3 904286381#3.4 904286381#3.18 -904286372#1 -904286375#0 904286385#12 -951992356 -951992356.18 -951992356.27 -951992356.36 -904371488#0 -904371488#0.22 -904286385#9 -904286385#8 -904371487#1 -904371487#1.16 -904371489#2 951973468#0 951973468#1 951973468#2 951973468#2.24 951973468#2.27 951973468#2.29 951973468#2.32 -904371490#0 671191680#5 671191680#6 -904286371 -904286373#2 -904286373#2.6 -904286373#1 -951975997 -904371467#2 -904371467#2.49 -904371467#2.113 904371464 896786325#1 -896786328#1 -896786328#0 -896786328#0.177 -951951638#10 -951951638#10.18 -951951638#9 -951951638#8 -951951638#7 951946800#0 951951639#7 -951973430#1 -951973430#0 -952002224#4 -952002224#4.27 -952002224#3 -952002224#3.30 -952002224#3.48 -952002224#3.80 904286410#0 904286410#0.33 904286409#0 -951874860#1 951874872 -951874859#1 -951874859#0 -904286402#2 -904286402#1 -904286402#0 -904286410#2 -904286411#3 -904286411#2 -904286411#2.14 -951874848#1 -951874848#0 -952002224#1 896786337#4 951951638#0 951951638#1 951951638#2 952000398 951951639#13 -951946794#0 951946792#1 896786337#8 896786337#8.8 -951887683 -951887684 -951887682#6 -951887682#5 -951887682#4 -951887682#3 951887692 -951887691#0 -951887682#0 -951887700#14 -951887679#2 951887680 -951887678#1 951887679#0 -951887681 951887675#1 -951887674#2 -951887674#1 -951887674#1.5 -951887674#1.8 -951887674#0 904196453#11 904196453#12 904196453#12.12 904196453#12.67 -904196452#8 -904196452#8.9 -904196452#7 -904196452#6 -904196454#8 -904196454#8.8 951887700#4 951961236#0 951887665 -904196454#6 -904196454#5 -904196454#4 951887661#0 951887661#1 951887661#2 -951887663#2 -951887663#1 -951887663#0 951887700#7 951887700#7.21 951887700#7.25 951887700#8 951887700#8.5 951887700#8.7 951887700#8.11 951887700#10 951887700#11 951961240#0 951961240#0.54 951961240#0.57 951961240#0.59 951961240#0.62 -951961245 951891772#0 -951891773 -951891771#0"/>
</vehicle>
<vehicle id = "veh7" type= "veh_passenger" depart="7210" >
<route edges =" 45342801#5 45342801#5.32 902433317#3 951421968#0 951421968#1 951421968#1.20 -951381446#1 -951368598#0 -951370988 -951370988.61 -951370988.66 -951370988.72 45342799#25 45342799#25.7 45342799#25.22 45342799#26 951368596 902433317#8 902433317#8.29 902433317#9 951368594#0 951368594#1 951368594#2 972507120#3 -951366780#1 -951366780#1.2 -951366780#1.41 -951366780#0 951369747#1 951366781#2 951366781#2.22 951366779#1 45342812#1 45342811#2 45342811#2.66 45344273#23 45344273#23.11 45344273#24 -897252873#2 -897252873#1 -897252873#1.42 -897252873#0 -897252873#0.25 897252876#4 897252876#5 897252876#5.34 897252876#6 897252876#7 897252876#8 -902433295#1 -951370982#1 -951370980 -951370980.12 -951370980.14 -951370980.16 -951370980.17 -951370980.19 -951370980.24 45344293#3 -897252876#10 45344324#0 45344329#3 45344329#4 45344329#5 -951381435 -45344331#2 -45344331#1 -45344331#0 45344326#3 699875133 699875130#1 45344297#0 45344297#0.22 45344297#2 45344297#2.7 45344297#2.17 45344297#2.22 45344297#2.28 45344297#2.54 45344297#2.118 950399187#0 950399187#1 700254525#5 700254525#6 950235689#0 950235689#1 950235689#2 45344335#1 699875131#2 699875131#3 699875131#4 700254525#9 950235690#0 950235690#0.11 950235690#1 45344335#4 -903341090 897172091#12 -950400189 -950235691#2 -950235691#2.50 -950235691#1 950400191 950400191.10 950400191.18 950400191.24 950400191.29 700254525#12 700254525#12.12 -45344336#6 -45344336#6.35 -950235695#3 -950235695#2 950235702 950732875#1 950235694#2 950235692#1 -950455053 -950235703#0 -950235703#0.13 -950235703#0.32 -950235703#0.55 -950235703#0.71 -950235703#0.86 -950235703#0.97 -950235703#0.108 -950235699#4 950235692#4 -45344273#35 -45344273#35.27 45344278#0 45344278#0.58 45344278#0.62 45344278#0.65 45344278#1 -950238178#4 -950238178#4.19 950238179#0 950238179#1 45344273#38 45344273#38.38 45344273#38.50 45344273#38.62 -950235700#3 -950235700#2 -950235700#1 -950235700#0 -700254524#1 700254523 -700254525#0 45344272#4 950233988#0 950233988#1 950233988#1.76 950233988#2 950233988#2.43 950233988#2.55 700278833#4 700278833#5 700278833#5.13 700278833#5.27 700278833#6 700278833#6.17 700278833#6.73 700278833#6.117 45344280#13 950238193#0 950238193#1 950238193#2 45344336#1 950553578#1 -950238192#5 -950238192#5.24 -950238192#4 -45344281#0 -45344280#11 -45344280#11.8 -45344280#11.20 -45344280#9 -45344280#9.5 -950390893#4 -950390893#4.28 -950390893#4.45 -950390893#4.63 -950390893#3 -950390893#1 -950390893#1.23 -950390893#1.49 -950390893#1.53 -950390893#1.57 -950390893#1.63 -950390893#0 -700278832#3 -700278832#3.10 -700278832#3.21 -700278832#2 -700278832#2.6 -700278832#2.16 -700278832#1 -700278832#0 -700278832#0.10 -700278833#2 -700278833#2.24 950241222#0 950392123#0 950392123#0.21 950392123#0.29 950392123#0.39 -950390889#3 -950390889#3.20 -950390889#3.34 -950390889#3.45 950392121#0 950392121#0.13 950392121#0.18 950392121#0.24 950392121#0.35 950392121#0.44 950392121#0.54 950392121#1 -951132943 -951132943.7 -950241220#1 -950389244#1 -950389244#1.19 -950389244#1.34 -950389244#0 -950389244#0.11 -897252879#13 -897252879#12 -897252879#12.59 -897252879#11 -897252879#11.67 -897252879#11.92 -897252879#10 -950396020#3 -950396020#1 -950396020#1.13 950396021#1 -950397771 -950397771.20 -950397771.23 -950397771.26 -950397771.30 950396018#1 -950241855#5 -950241855#5.40 -950241855#5.44 -950241855#5.47 897252878#5 897252878#5.15 897252878#6 897252878#6.10 950241205#0 -950397769#0 -950241208#2 -950241208#2.36 950396019 -897252879#8 -897252879#8.14 -897252879#8.40 -950309193 -950309195 -950309194 -897172106#13 -897172106#13.15 -897172106#13.79 -897172106#13.160 -950239900#1 950239883#0 950239883#0.10 950239883#0.21 950239883#0.30 950239883#0.38 950239883#0.48 950239883#1 950239883#1.39 950239883#1.63 950239883#1.82 950239883#1.118 950239883#2 950239883#2.23 950239883#2.49 950239884#0 950239884#1 897615335#7 897615335#7.26 -897615337 -897615337.16 -897615337.65 -897615339#6 -897615339#6.10 -950287957#1 -950287957#0 950287959#2 950287959#3 -897615338#2 -897615342#2 -950293294 -950293294.47 -950293294.52 -950293294.58 -950293294.63 -950293294.78 -950293294.85 -950293294.93 -950293294.99 -950293294.116 -950293294.119 -950293294.122 -897615343#2 -897615343#2.28 -897615343#0 897172106#16 897172106#16.31 897172106#17 897172106#17.12 -950287956#1 -950287956#1.31 -950287956#1.35 -950287956#1.38 -950287956#1.41 -897615338#0 897172106#19 897172106#19.21 897172106#20 897172106#20.28 -45343180#8 -45343180#8.53 -45343180#7 -45343180#7.23 -45343180#6 -45343180#5 -45343180#5.49 -897615339#3 950239878 950287962#1 950239879#0 950239879#1 -950287960 950239880#1 950239880#2 950239880#3 45343180#1 45343180#1.33 45343180#1.64 45343180#1.87 951136516 951136516.9 951136516.23 951136516.42 897615336#0 897615336#0.80 950239895#1 -950304248#0 897615343#8 897615343#8.20 897615343#8.24 -671176469#11 -671176469#11.1 -671176469#11.8 -671176469#11.17 -671176469#10 -671176469#10.76 -671176469#9 -671176469#8 -671176469#7 -671176477#11 -671176477#10 -671176477#9 -671176477#9.13 -671176477#9.60 -671176477#9.86 -671176477#9.104 897615339#0 897615339#1 897615339#1.27 950239879#3 -950287964#0 -950287964#0.14 -950287964#0.19 -950287964#0.24 -950287964#0.32 897615341#1 897615341#2 897615341#3 897615341#3.8 -671176477#7 -671176477#7.19 671176475#0 671176475#1 -950239856#7 -950239856#7.18 -950239856#6 -950239856#6.12 -950239856#5 -950239856#5.5 -950239856#5.16 -950239856#4 -950239856#3 -950241211#1 -950241212#1 -950241212#1.22 -950241212#1.44 -950241212#1.66 -950241214#3 -950241214#3.68 -950241214#3.76 -950241214#3.85 -950241214#3.94 -950241214#2 -950241216 -950241216.24 -950241216.47 -950241217 -950241217.46 -950241217.50 -950241217.54 -950241217.58 -950241214#0 -950239861#3 -950239861#2 -950239858 -950239858.78 -950239858.82 -950239858.85 -950239858.89 -950282464#0 -950282464#0.5 -950239862#6 -950239862#6.7 -950239862#6.14 -950239862#6.26 -950239862#5 -950239862#4 -950239862#3 -950239862#3.25 -950239862#1 -671176478#1 -671176478#1.5 -671176478#1.11 -671176478#1.22 -671176478#1.56 -671176478#0 -671176478#0.38 -671176478#0.42 -671176478#0.45 -671176478#0.50 -671176478#0.54 -897172102 -897172103 -671176472 897252879#17 897252879#18 897252879#18.162 897252879#19 897252879#19.29 897252879#20 950318425#0 950318424#0 -951440585 -951440585.7 -951440585.12 -951440585.20 -951440585.29 -951440585.32 -951440585.35 -951440585.38 -951440585.40 -951440585.42 -951440585.45 -951440585.50 -951440585.53 -951440585.57 -951440585.61 897252879#22 897252879#23 896892972 896892973 896892973.27 896892973.31 -896786335#50 -896892981#13 -896892981#13.5 -896892981#13.13 -951349911#1 -951349910#1 -951349910#1.29 951354767 -896892981#10 -896892981#10.8 951354779 951354779.19 951354779.26 951354779.35 951354779.44 -896786335#46 -896786335#44 -896786335#44.9 -896786335#44.71 -896786335#43 -896786335#42 -896786335#42.22 -896786335#41 -896786335#40 -896786335#39 -896786335#39.27 -896786335#37 -896786335#36 -951349917#1 -951349917#1.14 -951349917#1.29 -951349917#1.41 -951349917#1.59 -951349918 876614662#9 876614662#9.52 896786335#33 -908869252#3 -908869252#3.7 -908869252#3.13 -908869252#3.35 -908869252#3.57 -908869252#3.88 -908869252#3.90 -908869252#3.94 -908869252#1 908869240#0 908869240#0.46 908869240#0.50 908869240#0.53 -908869239 -908869239.8 -908869239.11 -908869239.13 -908869239.15 -908869239.18 -45378649#3 -45378649#3.8 -896786265#8 -896786265#7 -896786265#7.11 951354764#0 951354764#0.86 951354764#0.98 951354764#0.109 951354764#0.120 896786263#2 896786263#2.22 -896786253 -896786253.32 -896786253.95 -951358824#1 -951358824#0 -951358824#0.36 -951358824#0.42 -951358824#0.47 -951358824#0.59 -951358824#0.67 -951358824#0.72 -951358824#0.78 896786335#28 896786335#29 896786335#29.12 -896893028#5 951354771#0 -951355290 -951355290.28 -951355290.30 -951355290.31 -951355290.32 -951355290.33 -896893028#3 -896893028#3.26 -896893028#1 -896893028#1.14 -896893028#0 -896893028#0.19 -877388646#5 -877388646#5.83 -951998772 -896893027#0 -896893027#0.51 -896893027#0.118 896786297#4 896786297#4.10 896786297#4.18 896786297#4.21 896786297#4.23 -896893005#4 896893015#0 896893015#1 896893015#1.26 896893015#2 896893015#3 -896893018#0 877388728#14 -951995494#1 -951995491#2 -951995491#1 -951995491#0 -896786266#12 909024250#0 909024250#1 -951995490#1 -951995490#1.13 -951995490#1.16 -951995490#1.19 -951995490#1.23 909024242 -896786293#6 909024251 909024251.27 909024250#4 909024250#5 909024250#6 909024239#0 909024239#1 909024239#1.17 -909024237#1 -909024237#1.34 -909024237#1.71 -909024237#1.74 -909024237#1.78 -909024237#1.82 877398366#1 877398366#1.15 877398366#2 877398366#2.36 877398366#3 877398366#4 -904371457 904371458#0 904371458#0.18 904371458#1 904371465#0 904371465#1 904371465#2 -904371467#0 896786328#3 896786328#3.72 -877396860#3 -951975994 896786325#3 -896786323#0 -896786323#0.137 -896786323#0.139 -896786323#0.141 -896786324#0 -896786324#0.19 -896786324#0.132 -896786324#0.177 951951639#0 951951639#1 951951639#3 951951639#4 951946801 951946795#3 951946795#4 951946795#6 951946795#7 -951946797 951951639#11 951946796#0 951946804 951946804.28 951946804.31 951946804.34 951946804.37 951946795#11 951946795#11.34 951946795#11.40 951946795#11.45 896786337#10 896786337#10.21 -951887700#20 671756019#0 -951961251#1 951961247#0 951961248#0 951961248#1 -876509484#6 -876509484#6.3 -876509484#6.8 -876509484#6.12 -876509484#6.15 -876509484#5 -951878267#1 -951878267#0 -951878267#0.26 -951878267#0.29 -951878267#0.32 -951878267#0.34 951878264#2 -951878263#3 -951878266#4 -951878266#4.37 -951878266#2 -951878266#1 -951878266#1.39 -951878266#1.47"/>
</vehicle>
<vehicle id = "veh8" type= "veh_passenger" depart="7210" >
<route edges =" 951370989 951370989.40 951370989.47 951370989.53 951370989.56 951370989.62 951370989.64 951370989.67 -902433320#1 -902433320#0 902433321#2 -45342799#20 -45342797#4 -45342797#3 -951368601#1 -951368601#0 -951368603#0 45342835#2 45342809#2 45342809#3 45342809#4 45342809#5 45342809#6 45342809#7 45342809#8 44740885#10 44740885#11 44740885#11.48 44740885#11.52 45342829 -45342827#0 -45342827#0.88 -45342827#0.97 -45342827#0.103 -45342827#0.112 -45344273#12 -45342825#3 -45342825#3.46 -45342825#3.52 -45342825#3.61 -45342825#3.69 -45342825#3.78 45342828#0 45342828#1 45342828#1.100 -45344273#6 -45344273#6.40 -45344273#6.59 -951384598#3 -951384598#2 -951404491 -951404491.16 -951404491.28 -951404491.40 -951404491.51 -951384599#0 700249213#9 700249212#0 700249212#1 951404492 700249213#11 45342808#10 951370965#0 951370965#0.26 951370965#0.30 951370965#0.33 951370965#0.37 951370965#0.40 951370965#1 951370965#1.28 951370965#1.49 -45344314#0 897252864#3 -897252871 -897252870 -45344310#2 -45344310#1 -45344310#0 -45344310#0.10 -45344310#0.18 -45344310#0.30 -45344310#0.41 -45344310#0.52 971495602#8 971495602#8.24 971495602#8.86 -313316104#6 -45378650#5 -45378650#5.11 -45378650#4 -45378650#3 -45378650#3.29 -45378650#2 -45378650#2.42 -45378650#2.62 -45378650#1 -45378650#0 -45378650#0.43 908846594#1 908846594#1.37 -908846596#0 -908846596#0.31 908560901#7 908560901#8 908560901#8.23 908560901#8.56 -313316104#0 -313316082 -45378649#12 -45378649#11 -45378649#11.22 -45378649#10 -45378649#10.20 -45378649#9 -45378649#9.7 951355297#0 951355297#1 951355297#2 951355297#2.63 -896786262#5 -896786262#4 -896786262#4.31 -951355295 951354762#1 951354762#1.1 951354762#1.3 951354762#1.20 896786261 -896786258#4 896786257#0 896786257#0.74 896786257#0.128 896786257#0.138 896786260#4 896786260#4.25 -909024254 -909024254.11 -909024254.37 896786266#3 896786266#4 896786257#2 896786257#2.28 896786257#2.57 896786257#3 896786257#3.14 896786257#4 909024248 909024248.50 909024287#0 909024287#0.8 909024287#0.15 909024287#0.65 909024287#2 909024287#3 909024287#3.52 876614861#3 876614861#3.7 876614861#4 876614861#5 951358817 951358817.22 951358817.26 951358817.30 951358817.34 951358817.39 951358818#1 951358818#1.4 951358818#1.9 951358818#1.14 951358818#1.27 951358818#1.31 951358818#1.34 951358818#1.36 951358818#1.39 951358818#1.41 951358818#1.43 951358818#1.49 951358818#1.52 951358818#1.55 951358818#1.59 951358818#1.79 951358818#1.81 951358818#1.82 951358818#1.84 951358818#1.86 45378665#14 45378665#14.10 45378665#14.32 45378665#16 45378665#17 45378665#17.10 45378665#17.29 45378665#17.54 -951346845 -951346845.45 -951346845.46 -951346845.48 -951346845.49 -951346845.51 -951346845.52 -951346845.76 -951346845.78 -951346845.80 -951346845.82 -951346845.84 -951346845.103 -951346845.133 -951346845.138 -951346845.141 -951346845.144 -951346845.148 896786295#3 896786295#3.23 -951346847 -951346847.28 -951346847.37 -951346847.45 -951346847.52 -951346847.78 -951346847.86 -951346847.93 -951346847.99 -951346847.106 -951346847.111 -951346847.116 896786267#0 896786267#0.23 896786267#0.26 896786267#0.28 896786267#0.30 896786267#0.33 896786267#0.53 896786267#0.75 896786267#0.212 -896786269#3 -896786269#2 -896786269#1 -896786269#1.15 -909024284 -909024284.22 -909024289#5 -896786283#1 -896786283#1.4 -896786283#1.24 -896786283#0 -896786283#0.23 877396033#4 877396033#4.19 896786286#4 896786286#4.10 896786286#4.60 -909024289#3 -909024289#3.21 -909024289#2 -909024289#1 -909024289#1.25 -909024289#1.69 -909024289#1.74 -909024289#1.90 -909024289#1.103 -909024289#1.130 -909024289#0 -909024289#0.2 -909024289#0.5 -909024289#0.10 896786293#2 896786293#2.8 896786293#2.28 896786293#2.36 896786293#2.45 896786293#2.48 896786293#2.52 -45378665#2 -45378665#2.36 -45378665#1 -45378665#0 -45378665#0.39 -45378665#0.75 -896786335#14 -896786335#14.27 -896786335#13 -951983587#9 896786303#2 896786303#2.23 896786303#3 896786303#4 896786303#4.33 896786303#5 896786303#5.27 896786303#5.100 896786303#5.124 896786303#6 896786303#6.29 896786302#1 896786304#6 896786304#7 896786304#7.11 896786304#8 896786304#8.15 -951983586#1 -951983586#0 -896786303#0 896786311#13 896786311#13.28 -896786335#10 -896786335#10.38 -896786335#9 -896786335#8 -896786335#8.39 -896786335#7 -896786335#6 -896786335#4 -896786335#4.18 -896786317#3 -896786317#3.20 -896786317#2 -896786317#2.9 -896786319#4 896786318 896786318.40 896786319#1 896786319#1.7 951976008 -951976006#0 -951976005 -896786317#0 -896786316#2 -951930664#5 -877396172#0 -877396172#0.15 896786313#3 896786313#3.51 896786313#3.88 896786313#3.110 896786313#3.151 896786313#3.164 896786313#3.186 896786313#3.223 896786313#3.237 896786313#3.246 896786313#3.253 -896786312#1 -896786312#1.17 -896786312#1.24 -896786312#0 -896786312#0.11 -896786312#0.35 -896786312#0.60 -896786312#0.135 -896786311#2 -896786311#1 -896786311#1.19 -896786311#0 -896786311#0.35 951983599 -951935291#3 -951935291#3.17 951930682#0 951930682#1 -951930681#1 -951930681#1.3 -951930681#1.6 -951930681#1.9 -951930681#1.12 -951930681#0 951930680#4 877396480#1 877396480#2 951935254#0 951935254#0.34 951935254#0.43 951935254#0.53 951935255#0 951935255#1 951935255#1.24 951935255#1.31 951935255#2 951935255#2.6 877396480#5 877396480#5.5 877396480#5.10 -951935256#2 -951935257#1 -951935291#1 877389028#11 877389028#11.9 -951935289#1 -951935289#0 951935286#1 -951935287 -951930661#3 -951930661#3.14 -951930661#2 951930662#0 951930662#1 951930662#1.184 951930662#2 951976000#3 -951976001#1 -951976002 -951976000#1 -951975999 877395784#15 -951946803#2 -951946816#13 -951946816#13.3 -951946816#13.8 951951634#0 951951634#1 951951634#1.75 951951634#1.79 951951634#1.82 951951634#1.86 951973428 -951946837#0 951946805#3 951946836 951946835#5 951946835#5.21 951946835#5.25 951946835#5.28 951946805#5 951946837#2 951946834#1 -951946833#7 951951631#0 951951631#1 951951636 -951946817#4 -951946817#3 -951946817#2 -951946817#1 -951946817#0 -877395784#13 -877395784#13.47 -951946824 -951946816#7 -951946820#1 -951946820#0 -951946819#0 -951946816#5 -951946816#5.8 -951946816#5.11 -951946816#5.14 -951946816#5.18 -951946816#4 -951946816#2 -951946816#1 -951946816#0 -951946815#4 -951946815#3 -951946789#2 -951946787#6 -951946787#4 -951946787#3 -951946787#2 951946830 -951946829#0 -896786337#18 -896786337#17 -896786337#17.3 -896786337#16 -951946812#2 -951946812#1 -951946813 951946810#1 951946810#2 -896786337#14 -896786337#14.40 -896786337#14.111 -952365020 -952365021 -951878231#2 951868619#0 951868620#0 -951868611#1 -951878231#0 951951645 -951951643#3 -951951643#2 -951951643#1 -951951643#0 -951878263#7 -951951649 951951648#1 -951951642#0 -951878263#5 -951878269#15 -951891772#2 -951891774 951891771#2 951930613 -951878269#9 951891767 951891769#0 951891769#0.18 951891769#0.24 951891769#0.29 951891769#0.46 951891769#0.50 -951891768 -950288028#1 -950288028#0 951878269#5 951891765#0 951891765#1 951887654#3 -951891764#1 -951891764#0 -951887663#3 951887661#3 951878266#0"/>
</vehicle>
<vehicle id = "veh9" type= "veh_passenger" depart="10815" >
<route edges =" 951370989 951370989.40 951370989.47 951370989.53 951370989.56 951370989.62 951370989.64 951370989.67 -902433320#1 -902433320#0 902433321#2 -45342799#20 -45342797#4 -45342797#3 -45342797#2 -951370983 -951368602#0 -45342835#0 -45342797#0 -45342834#1 -45342834#0 44740902#8 44740902#9 44740902#9.47 -951370984#2 -45342813#1 45342817#0 45342817#1 45342817#2 45342818#1 45342836#0 -951441769 -951370985#0 45342818#3 -45342814#4 -45342814#3 -45342814#2 -45342814#1 44740902#11 44740902#12 45342802#1 45342841 44740885#8 -45342803#4 -45342803#3 45342820#0 -45342804#3 -45342804#2 45342831#0 -951417482#2 -951417480#1 -951417480#0 -45342805#3 951417481 -951417482#0 45342805#1 45342805#1.19 951417479 45342809#16 -897252872 -897252872.99 -45342808#2 45342804#0 -45342843#3 -45342843#2 -45342843#1 -45342843#0 44740957#2 44740957#4 -671399051#1 -671399051#0 44740942#2 44740942#2.58 -874839172#0 -44740943 -313316091#20 951438760#0 -672215964 672215965#1 -44740922#0 -313316091#16 -313316091#14 -313316091#14.20 -44740940#2 -44740940#1 44740945#0 44740945#1 44739167#14 44739167#15 44739167#15.29 45378683#0 45378683#0.76 45378689#0 45378689#1 45378688#0 45378688#1 -45378687#0 45378686#1 45378658#1 45378641#0 45378641#1 45378641#1.76 -45378640#3 -45378683#4 -45378683#4.30 -45378683#4.33 -45378683#4.36 -45378683#4.38 -45378683#4.41 -45378683#4.68 -45378683#4.75 -45378683#4.81 -45378683#4.88 -45378683#3 -45378683#2 45378655#2 45378655#3 45378655#4 45378655#5 45378655#6 951358810#1 951358810#1.4 -45378656#0 -45378656#0.43 -45378656#0.46 -45378656#0.48 -45378656#0.49 -45378656#0.51 -45378656#0.58 -45378656#0.60 -45378656#0.62 -45378656#0.64 45378654#1 -45378657#3 -45378657#3.57 -45378657#3.61 -45378657#3.65 -45378657#3.69 -45378657#3.73 -45378657#3.78 -45378657#2 -45378657#1 -44740931#2 -44740931#2.59 -44740931#1 -44740919#0 -951358792 -951358792.26 -951358792.42 -951358792.53 -951358792.66 896892969#18 -971495601#9 -971495601#9.28 44740934#0 -668599375#2 -668599375#2.17 -668599375#1 -668599375#1.9 -668599375#0 44740916#11 44740916#12 44740916#13 909019768#0 909019768#0.14 909019768#0.25 -909019765 -909019766#0 909019767#1 909019767#1.24 909019767#1.35 -971495601#5 -45378660#1 -45378660#1.21 -45378660#1.52 -45378660#1.88 -45378660#1.126 -908560900#3 -908560900#2 -908560900#1 908560901#22 908560901#22.77 908560901#22.89 -971495601#0 -313316086 -44739144#26 -903953334#9 -903953334#9.24 -903953334#9.50 -903953334#9.58 -903953334#8 -903953334#8.6 -903953334#8.17 -903953334#8.53 -903953325#4 -903953325#3 -903953325#2 -903953325#2.18 -909778547#2 -909778546#1 951346849 44739144#21 -896786294#12 -896786294#12.19 -896786294#12.25 -896786294#12.30 -896786294#12.36 -896786294#12.41 -896786294#11 -896786294#11.13 -909024271#1 -909024271#0 -909024271#0.59 -909024271#0.78 -909024277#1 -909024277#1.20 -909024277#0 909024279#4 909024279#4.20 909024279#5 909024279#5.47 -896786294#7 -896786294#7.20 -909024278#1 -909024278#1.22 -909024278#0 -909024278#0.26 -909024278#0.99 -909024279#0 -909024279#0.11 -896786295#8 -896786295#8.13 -896786295#8.15 -896786280#3 -896786280#2 -896786275#5 -896786275#4 -896786275#3 -896786271#0 896786272#1 -896786281#2 -896786281#1 -896786281#0 -896786282#3 -896786282#3.19 -896786282#3.45 896786273#0 896786273#1 896786273#2 896786273#2.36 896786273#3 896786273#3.22 896786279#2 896786279#2.21 896786269#5 896786269#6 896786269#6.25 896786269#6.71 896786269#7 -951421977 896786268#3 896786295#13 -896786294#5 -896786294#5.6 -896786294#5.10 -896786294#5.13 -896786294#5.16 -896786294#5.19 -896786294#5.22 -896786294#4 -909024256#1 -909024256#1.22 -909024256#1.80 -896786277#3 -896786277#2 -896786277#0 -896786290#5 -896786290#4 -896786290#4.18 -896786290#3 -896786290#2 904286383#2 -904286380#0 904286381#6 -904371470#2 -904286384#0 -904286385#13 -904286385#13.24 -904286385#12 -904286385#10 -904286385#9 -951992348 904371486#1 904371487#0 -904371489#2 -904371489#1 -904371489#1.14 -904371489#1.36 -904371489#1.40 -904371489#1.44 671191682#0 671191682#1 -951973462#2 -951973460#1 -951973460#0 904371493#2 904371493#3 -671191681#2 -671191681#1 -671191681#0 904286385#1 904371493#5 951973474#0 951973474#1 -951973473#0 951973472#1 -904371491 904286385#3 904286385#4 904286385#5 904286385#5.42 951973468#1 951973468#2 951973468#2.24 951973468#2.27 951973468#2.29 951973468#2.32 904371490#1 904371490#2 951973470#0 -951973471#4 -904371456#2 -904371456#2.22 -904371456#1 -904371456#0 -904371456#0.17 -671191680#0 -671191680#0.38 -671191680#0.44 -671191680#0.48 -671191680#0.53 -671191680#0.58 -671191680#0.63 -671191680#0.76 -896786327#0 -877395784#21 -877395784#21.14 -951951638#10 -951951638#10.18 951973434#1 951951639#3 951973426#1 951973426#2 -952002224#6 -952002224#5 -952002224#5.5 -952002224#4 -952002224#4.27 -952002224#3 -952002224#3.30 -952002224#3.48 -952002224#3.80 -952002224#2 -952002224#2.36 -952002224#1 896786337#4 951951638#0 -952000397 951951639#15 896786337#6 896786337#7 896786337#8 896786337#8.8 896786337#10 896786337#10.21 -951887700#20 671756019#0 671756019#1 671756018 951961233#0 951961233#0.22 951961233#0.27 951961233#0.32 951961233#0.37 -951961253 -951961253.4 -951961253.8 -951961253.13 671756019#3 671756019#4 -951887686#1 -951887688#2 -951887688#1 -951887688#0 951887687#1 951887687#1.5 951887687#1.11 -951961233#4 951961244 951961244.37 951961244.40 951961244.43 951961244.47 -951961242#1 -951961242#0 -951961240#1 -951961245 951891772#0 951891772#1 -951891774 -951891771#1 -951891771#0"/>
</vehicle>
<vehicle id = "veh10" type= "veh_passenger" depart="10815" >
<route edges =" 45342801#5 45342801#5.32 902433317#3 902433317#4 902433317#6 902433317#7 902433317#8 902433317#8.29 902433317#9 951368594#0 951368594#1 951368594#2 45342812#0 -951366779#1 -951366781#2 -951366781#2.31 -951369747#1 951366780#0 951366780#1 951366780#1.16 951366780#1.54 -951369746#4 -951369746#4.24 -951369746#4.27 -951369746#4.29 951369736 951369736.3 951369736.6 951369736.8 951369736.18 951369736.20 951369736.21 951369736.22 951369736.23 951369744#3 951369744#3.5 951369745#2 951369745#2.2 951369745#2.14 951369745#2.20 951369745#2.26 -951369742 -951369742.3 -951369742.6 -951369742.30 -951369742.33 -951369742.36 -951369742.38 876567894#58 876567894#58.2 876567894#58.7 876567894#58.15 876567894#58.20 876567894#59 876567894#60 876567894#60.19 -951369737#3 -951369737#3.16 -951369737#3.20 -951369737#3.24 -951369737#3.29 -951369737#3.34 -951369737#3.39 -951369737#3.42 -951369737#3.56 -951369737#3.63 -951369737#3.67 -951369737#3.71 -951369740#1 -951369740#1.11 -951369740#1.14 -951369740#1.18 -951369740#1.22 -951369740#1.28 -951369740#1.32 -951369740#1.36 -951369740#1.40 -951369740#1.44 -951369740#1.64 -951369740#0 -951369740#0.4 -951369740#0.11 -45344273#26 897252876#0 897252876#0.16 897252876#0.57 897252876#1 897252876#1.54 897252876#3 897252876#4 45344320#2 -45344329#7 -45344329#6 -45344329#5 45344333#0 -45344330#1 45344326#0 45344326#0.4 45344326#0.22 -951404486#1 -951404486#0 45344333#2 45344331#2 45344331#3 45344327#1 -897172091#10 -897172091#9 699875131#0 699875130#0 699875130#0.20 699875130#1 -897252883#1 -897252883#0 -897252883#0.7 -897172091#1 -897172091#0 -45344294#6 -45344294#6.9 -45344294#6.25 951381432#0 951381432#0.88 951381432#0.91 951441775 951441775.22 951441775.36 951441775.44 951441775.54 951441775.68 950389247#1 950389247#1.24 950389247#2 950389247#2.5 950389247#2.13 897252850#2 897252850#2.5 897252850#2.24 897252850#3 897252850#4 951370959 951370959.15 951370959.16 951370959.17 951370959.18 951370959.20 951370959.23 951370959.24 951370959.25 951370959.26 -45344291#4 -45344291#4.36 -951370958 -45344288#0 -45344288#0.29 -45344294#3 -45344294#1 -45344290#5 -45344290#5.34 -45344290#5.104 -45344290#4 -45344290#3 -45344290#3.23 -45344290#3.33 -45344290#3.44 -45344290#2 45344292#4 700249213#5 700249213#5.63 -897252869#3 -897252868#4 -897252868#3 -897252868#3.15 -897252868#2 -897252868#1 -897252868#1.11 -897252868#1.30 -897252868#0 -897252868#0.12 -897252868#0.33 -897252868#0.71 -897252863#5 -897252863#3 -897252863#2 -45344304#10 -45344304#9 -951370964 -951370971#0 951370974#2 -45344304#7 -45344304#6 -45344304#6.5 -45344304#6.31 -45344304#6.62 -45344304#5 -45344286#12 -45344286#11 951404497 951404497.20 951404497.26 951404497.33 951404497.38 951404497.43 -897252855#0 -45344287#0 -45344287#0.5 -45344287#0.14 -45344286#7 -702632122#4 -702632122#4.41 -702632122#4.57 -702632122#4.62 -702632122#4.67 -702632122#4.71 -702632122#4.73 -702632122#4.77 -702632122#3 -951384601#1 951384600 -702632123#2 -702632123#1 -702632123#1.4 -702632123#0 45344272#13 45344272#13.4 45344272#13.35 45344298 896892974 971495602#11 971495602#12 971495602#12.26 971495602#12.77 951442813 951442812#0 -896786335#50 -896786335#49 -896786247#9 -896786247#9.8 -896786247#9.17 -896786247#9.75 -896786247#9.157 -896786247#8 -896786247#7 -896786247#7.2 -908869249#2 -908869249#2.8 -908869249#2.14 -908869249#2.28 -908869249#1 -908869245 -908869245.29 -896892976#1 -896892976#1.4 -896892977#3 -896892977#3.15 -896892977#3.37 -896892977#2 908869250#5 -908869248#1 -908869248#1.4 -908869248#1.6 -908869248#1.9 -908869248#1.11 -908869248#1.19 -951358827#2 -951358826 -951358826.10 -951358826.13 -951358826.16 -951358826.19 -951358826.36 -951358826.40 -951358826.44 -951358826.49 -896786335#42 -896786335#42.22 896892983#0 896892983#0.10 896892983#1 896892983#1.19 -951421976 -896892982#1 -951349921#5 -951349921#5.15 -951349921#5.17 -951349921#5.20 -951349921#5.23 -951349921#5.25 -951349921#5.32 -951349921#5.34 -951349921#5.37 -951349921#5.39 -951349921#5.42 951349920 951349920.8 951349920.12 951349920.15 951349920.20 951349920.60 951349920.65 951349920.69 951349920.73 951349920.77 -896786335#37 -896786335#36 -896786335#34 -896786335#33 -876614662#9 -876614662#9.32 -951354772#1 -951354772#1.39 -951354772#1.50 -951354772#1.59 -951354772#0 -951354772#0.6 951354773#2 951354773#2.8 951354773#2.14 951354773#2.38 951354773#2.61 951354773#2.86 -951354771#1 -951355290 -951355290.28 -951355290.30 -951355290.31 -951355290.32 -951355290.33 896893028#4 896893028#4.8 896893028#5 45378649#0 45378649#0.36 45378649#1 951354763#0 951354763#1 -951358824#0 -951358824#0.36 -951358824#0.42 -951358824#0.47 -951358824#0.59 -951358824#0.67 -951358824#0.72 -951358824#0.78 -896786335#27 -896786335#27.19 -896786335#26 -896786335#24 -896893004#5 896893002 896893002.42 -896786335#22 -896786335#21 -896786335#21.41 -896893011#1 -896893012#6 -896893012#6.12 -896893012#5 -896893012#5.11 -896893012#4 -896893012#3 896893006 -896893008#0 896786300#2 896786300#2.40 896786300#2.70 -896893012#1 -896893012#0 -896893012#0.11 -896786303#4 -896786303#4.22 896786301 896786301.58 896786303#6 896786303#6.29 -896786302#0 -896786302#0.54 -896786302#0.113 -896786303#2 -896786303#2.23 -951983587#8 -951983588#1 -951983588#0 951983586#1 896786304#9 896786304#9.20 896786311#11 896786311#11.62 -951976011#1 -951976011#0 896786321#2 896786321#3 896786321#3.48 896786321#3.103 -896786335#8 -896786335#8.39 -951976009#1 -951976006#2 -951976007 -896786335#6 -896786335#4 -896786335#4.18 -896786335#3 -896786335#3.10 -896786335#2 951976001#0 -951976002 951976000#2 951976000#2.22 951976000#2.25 951976000#2.28 951976000#2.30 -951930662#2 -951930662#1 -951930662#1.134 -951930662#0 -951930661#0 877395784#7 877395784#8 877395784#8.44 877395784#9 951946815#0 -951946826 951946825#1 951946816#5 951946816#5.25 951946816#5.29 951946816#5.31 951946816#5.35 951946816#6 951946816#6.93 951946816#6.96 951946816#6.99 951946816#6.103 -951946820#1 -951946821#2 951946822 951946816#9 951946816#10 951946816#11 -951946833#0 877395784#15 -951946803#2 -951946803#1 -951946803#1.55 -951946803#1.59 -951946803#1.61 -951946803#1.64 951946795#1 951946795#2 -951946801 951951639#6 951946800#1 951946795#4 -951946799 951951639#9 -951946798#1 -951951638#3 952000398 -951951639#11 951946797 951946795#9 -951946796#1 951946804 951946804.28 951946804.31 951946804.34 951946804.37 951946795#11 951946795#11.34 951946795#11.40 951946795#11.45 -951887683 -951887684 -951887682#6 -951887682#5 -951887682#4 951887687#0 951887687#0.26 951887688#0 951887689 951961234#0 951961234#1 -951878265#2 -951878263#0 -951878263#0.69 -951878263#0.76 876509484#8 876509484#8.5 -671756018 -671756019#1 -951961251#1 951961247#0 951961247#1 951961247#1.3 951961249#0 951961249#1 951961249#1.17 951961249#1.19 951961249#1.21 951961249#1.24 -951961255 -951961255.19 -951961255.22 -951961255.25 -951961255.27 951961248#1 -876509484#6 -876509484#6.3 -876509484#6.8 -876509484#6.12 -876509484#6.15 951878264#0 951878264#0.74 951878264#2 -951878263#3 -951878266#4 -951878266#4.37 -951878266#2 -951878266#1 -951878266#1.39 -951878266#1.47"/>
</vehicle>
<vehicle id = "veh11" type= "veh_passenger" depart="10815" >
<route edges =" -45342801#4 45342799#23 45342799#25 45342799#25.7 45342799#25.22 45342799#26 45342799#27 45342799#27.15 45342799#27.20 45342799#27.25 45342799#27.36 972507120#0 -903341083#3 -903341083#2 -903341083#1 -951368605#2 -951368605#1 -951368605#0 -45342811#0 -45342801#0 -45342798#1 -45342798#0 -45344273#21 -45344273#21.28 -45344273#19 -45344273#18 -45344273#18.17 45344321#0 45344321#1 897252876#7 897252876#8 902433295#2 -45344329#3 -45344324#0 897252876#10 -45344293#3 951370980 951370980.48 951370980.53 951370980.55 951370980.56 951370980.58 951370980.60 -951370982#0 -45344293#1 -45344293#1.78 -45344293#0 -45344273#13 45342827#0 45342827#0.77 45342827#0.86 45342827#0.92 45342827#0.101 45342827#1 45342826#1 -44740885#10 45342809#9 -45342821#1 -45342821#1.44 -45342822#2 -45342822#1 -45342822#0 45342831#3 45342809#12 45342809#14 45342824#0 45342833#3 45342833#4 45342823#1 45342824#4 45342825#2 45342825#3 45342825#3.55 45342825#3.65 45342825#3.72 45342825#3.81 45342825#3.88 -45344273#11 -45344273#10 -45344273#10.42 -45344273#9 -45344273#8 -45344273#8.10 -45344273#7 -45344273#7.22 -45344273#6 -45344273#6.40 -45344273#6.59 -951384598#3 -951384597 -951384597.29 -951384597.36 -951384597.43 -45344273#3 -45344273#3.6 -45344273#3.14 -45344273#3.31 -45344273#3.48 -45344273#2 -45344273#2.6 -45344273#2.24 -951404493 -951404493.17 -951404493.21 -951404493.24 -951404493.26 -951404493.29 -951404493.32 -951404493.38 -951404493.57 -951404493.66 -951404493.74 -700249212#0 -700249213#9 -897252868#5 -897252869#2 897252861 897252860#1 -45344315#1 -45344315#1.25 -45344315#0 -45344315#0.31 -951404492 700249212#3 -45342808#8 -45342808#7 -45342808#7.16 -45344273#0 -897252881 -45378637#10 -45378637#9 -951404484#10 -951404483#1 -951404474#1 951404473 -951404484#6 951404482 45378639#9 45378639#10 45378639#11 45378639#12 45378639#12.8 -45344310#1 -45344310#0 -45344310#0.10 -45344310#0.18 -45344310#0.30 -45344310#0.41 -45344310#0.52 971495602#8 971495602#8.24 971495602#8.86 -313316104#6 -313316104#5 -313316104#5.12 -313316104#5.27 -313316104#5.46 -313316104#4 -313316104#4.4 -313316104#4.18 -313316104#4.31 -313316104#4.41 -313316104#4.56 -313316104#3 -313316104#2 -313316104#2.13 -313316104#2.35 -313316104#2.44 45378651#0 45378651#0.22 45378651#1 45378651#2 45378651#2.13 45378651#3 908560887#0 908560887#0.10 951436329#0 951436329#0.45 951436329#0.47 951436329#0.49 951436329#0.50 951436329#0.52 951436329#1 -908560882#2 -908560882#2.31 -908560882#2.36 -908560882#2.42 -908560882#2.46 -908560882#2.49 -908560882#2.63 -908560882#1 -908560882#0 45378651#7 45378651#7.19 45378651#8 45378651#8.42 908560868#0 908560868#0.13 908560868#1 908560868#1.11 908560868#1.28 908560869#1 908560869#1.23 908560869#1.32 908560869#1.55 908560869#1.70 -45378643#0 -45378643#0.26 -908560872#1 -908560872#1.53 -908560872#1.77 -951436653 -951436654#0 908560873#1 908560873#3 908560873#3.6 908560873#3.27 -908560866#2 -908560866#2.33 -908560866#2.34 -908560866#1 -908560866#1.1 -908560866#1.2 -908560866#1.4 -908560866#1.15 -908560866#1.32 -908560866#0 -908560866#0.1 -908560866#0.7 -908560866#0.13 -908560866#0.32 -908560874#0 -908560874#0.14 -908560901#17 -908560901#17.7 -908560901#16 -908560901#16.20 908560877#0 908560877#0.13 908560877#0.38 908560877#0.62 908560877#0.125 908560877#0.142 908560877#1 908560877#1.4 908560877#1.13 -908560885#0 -908560885#0.26 -908560885#0.53 -908560885#0.85 -908560901#13 -908560901#13.39 -908560901#12 -908560901#10 -908560901#9 -908560901#9.4 -908560901#9.59 -313316104#0 -313316082 -45378649#12 896786296#0 -951355298#2 -951355298#2.7 -951355298#2.9 -951355298#2.11 -951355298#2.15 -951355298#2.38 -951355298#2.43 951355292 -45378649#9 -45378649#9.7 951355297#0 951355297#1 951355297#2 951355297#2.63 -896786262#5 -951354759#4 -951354759#4.12 -951354759#3 -951354759#1 -951354759#1.6 -951354759#0 -951354759#0.4 -951354759#0.15 -951354759#0.20 -951354759#0.24 -45378649#5 -45378649#5.24 -45378649#5.57 -45378649#5.68 -45378649#3 -45378649#3.8 -896786265#8 -896786265#7 -896786265#7.11 -896786265#6 -896786265#6.26 -896786265#5 -896786265#4 -896786265#4.59 -896786265#2 -896786265#0 909024253#0 951995490#0 909024242 -896786293#6 909024251 909024251.27 909024250#4 909024250#5 909024250#6 909024239#0 909024239#1 909024239#1.17 909024239#2 909024239#2.40 877398366#3 -951995475#3 -896786288#1 896786291#1 896786291#1.19 -904371457 904371460#4 904371460#4.17 904371460#4.32 904371460#5 -877396860#3 -951975994 -896786325#2 -896786328#1 -896786328#0 -896786328#0.177 -877395784#20 -877395784#19 -877395784#17 -877395784#17.8 -877395784#17.24 896786335#0 951976000#0 -951975999 951946833#0 951946833#1 951951640 -951946817#1 -951946816#10 -951946816#9 -951946822 951946821#2 -951946820#0 951946819#1 -951946818#2 -951946806#8 951951629 951946833#11 951946833#11.92 951946833#11.95 951946833#11.98 951946833#11.101 -951946806#0 -952365020 -952365021 -951878231#2 951868619#0 951868620#0 -951868611#1 -951868611#0 -951951643#4 -951951643#3 -951951643#2 876509484#2 876509484#3 -951951650 -951951648#2 -951951648#1 -951951648#0 -951951643#0 951878263#8 951878230#4 -951891772#4 -951961237 -951891766#2 -951891766#2.2 -951891766#2.6 -951891766#2.10 -951891766#2.15 -951891767 951878269#9 -951930613 951878270#2 877401978#0 877401978#1 951878266#0"/>
</vehicle>
<vehicle id = "veh12" type= "veh_passenger" depart="14420" >
<route edges =" 951370989 951370989.40 951370989.47 951370989.53 951370989.56 951370989.62 951370989.64 951370989.67 -902433320#1 -902433320#0 902433321#2 45342799#21 45342809#0 951368600#0 -951368603#1 -951368603#0 45342835#2 45342809#2 45342809#3 45342798#3 45342798#4 45342798#5 45342798#6 44740902#9 44740902#9.47 -951370984#2 -951370984#1 -951370984#0 45342803#7 45342817#2 45342818#1 45342818#2 951370985#0 951441769 45342836#2 45342809#6 45342809#7 45342809#8 -44740885#9 -44740885#9.34 45342803#5 -45342814#3 -45342814#2 -45342814#1 44740902#11 44740902#12 671399046#2 671399046#2.23 -671399054#1 671399053 -44740885#4 671399058#0 671399058#1 671399058#2 -44740901#3 44740957#6 951417473 44740896#1 -951417474 44740957#8 -44740895#3 -44740895#2 -44740895#2.69 44740972#0 44740972#1 44740969#5 44740942#0 44740901#1 -671399049#1 -671399049#0 -671399051#0 44740942#2 44740942#2.58 -874839172#0 -44740943 -313316091#20 951438760#0 -672215964 672215965#1 44740922#1 951438759 -44740929#3 -44740929#2 951438762 951438763#1 951438763#1.5 44740967#2 44740967#3 44740967#4 -44740927#17 44740923#3 -951438764 -951438764.47 -951438764.119 -313316091#14 -313316091#14.20 -671761561 45378689#5 45378639#1 45378639#1.38 45378658#0 -45378686#1 -45378686#0 -45378689#2 45378688#0 45378655#0 45378655#1 -45378683#1 -45378683#0 -45378683#0.55 -44739167#15 -44739167#15.17 44740949#0 44740949#1 -44740953#7 44740952 -44740951#0 -44740953#4 -44739167#12 -44739167#11 -44739167#10 44740930#8 44740930#9 44740930#10 44740922#8 955410234 102277232#1 102277232#2 102277232#2.138 102277232#3 44739156#13 44740930#5 44740930#6 44740928#0 44740928#0.19 44740926#7 44740926#8 -44739163#16 -44740981#1 44740983#0 -44740985#1 -44740985#0 44739156#16 44740927#5 44740927#6 44740927#8 -951358800#1 -951358800#0 -44740918#1 -44740918#0 44740920#6 -951358792 -951358792.26 -951358792.42 -951358792.53 -951358792.66 896892969#18 -971495601#9 -971495601#9.28 -971495601#8 -971495601#7 -44740916#11 -909019783 -909019783.98 -971495601#3 -44740910#8 -671410531#2 -671410531#1 -671410531#1.53 -671410531#1.57 -671410531#1.63 -671410531#0 -909019784#0 313316100#8 313316100#8.72 -908560901#22 -908560901#22.11 -908560901#22.23 -908560901#21 -908560901#21.18 -908560901#21.74 -908560901#20 -908560901#20.10 -908560901#20.61 -908560901#20.115 -908560901#19 -908560901#19.77 -908560901#19.104 -896786299#0 -896786298 -45378665#19 -45378665#18 -45378665#17 -45378665#17.13 -45378665#17.39 -45378665#17.57 -45378665#16 896786282#0 896786282#0.41 896786282#2 896786282#2.23 896786282#2.28 896786282#2.32 896786273#0 896786280#0 896786280#0.19 896786280#0.47 896786280#1 896786280#2 909024257 909024257.36 909024257.92 -896786275#3 -896786275#2 -896786275#2.8 -896786275#1 -896786275#1.18 896786269#7 -896786270#1 -896786270#0 896786271#2 896786271#2.11 -896786295#9 -896786295#8 -896786295#8.13 -896786295#8.15 -896786295#6 -896786295#6.9 -896786295#5 -896786295#4 -951347814#1 -951347814#1.43 -951347814#1.47 951433464 -951347813#0 -951347813#0.14 -896786295#1 -896786295#1.28 951347815 951347815.27 951347815.37 951347815.47 951347815.52 951347815.56 951347815.58 951347815.61 951347815.65 896786296#13 896786296#13.14 -909024258#1 -909024258#1.26 -909024258#0 909024259#2 909024259#2.24 909024259#2.43 909024259#2.69 909024259#2.80 896786296#15 896786296#15.3 896786296#16 896786296#17 896786296#17.29 896786296#17.96 896786296#17.102 896786296#18 896786296#18.4 896786296#18.17 -44739144#24 -44739144#22 -44739144#21 -44739144#20 909778547#0 -951361609 903953324#1 903953324#1.22 -44739144#18 -44739144#16 -44739144#15 -909024265#3 -909024265#2 -909024265#2.29 909024264#0 -909024263 -909024263.30 -909024265#0 896786289#1 896786289#1.39 896786289#2 896786289#3 -896786294#8 -896786294#7 -896786294#7.20 -896786294#6 -896786294#5 -896786294#5.6 -896786294#5.10 -896786294#5.13 -896786294#5.16 -896786294#5.19 -896786294#5.22 -896786294#4 -909024256#1 -909024256#1.22 -909024256#1.80 -896786277#3 -896786277#2 -896786276 -896786276.82 -896786294#0 -896786294#0.13 -877398366#16 -896786290#5 -909024293#3 -909024292 -909024292.58 -896786290#3 -896786290#2 904286383#2 904286383#3 904286383#3.17 904286383#4 -904286382#0 904286381#2 904286381#3 904286381#3.4 904286381#3.18 -904286372#1 -904286372#0 904286373#4 -904286385#6 951973468#1 -951973469 904371490#2 -904371492#6 -904371456#3 -904371456#2 -904371456#2.22 -951973471#1 -951973471#0 -671191680#1 -671191680#1.13 -671191680#0 -671191680#0.38 -671191680#0.44 -671191680#0.48 -671191680#0.53 -671191680#0.58 -671191680#0.63 -671191680#0.76 -896786327#0 -877395784#21 -877395784#21.14 -951951638#10 -951951638#10.18 951973434#1 951951639#3 951973426#1 -951951638#8 -951951638#7 -951951638#5 -951951638#4 -951951638#3 -951951638#2 -951951638#1 -951951638#0 896786337#5 896786337#5.11 896786337#6 896786337#7 896786337#8 896786337#8.8 896786337#10 896786337#10.21 -951887700#20 671756019#0 671756019#1 671756019#2 671756019#2.43 671756019#3 671756019#4 -951887700#18 -951887690 -951887688#1 951887689 -951887700#16 -951887700#15 -951961243 -951961242#0 -951961240#1 -951961245 951891772#0 -951891773 -951891771#0"/>
</vehicle>
<vehicle id = "veh13" type= "veh_passenger" depart="14420" >
[...]
</vehicle>
<vehicle id = "veh18" type= "veh_passenger" depart="21630" >
<route edges =" 951370989 951370989.40 951370989.47 951370989.53 951370989.56 951370989.62 951370989.64 951370989.67 -902433320#1 -902433320#0 902433321#2 -45342799#20 -45342797#4 -45342797#3 -951368601#1 -951368602#1 951370983 -45342797#1 45342835#0 45342835#1 45342835#2 45342809#2 -45342834#2 -45342834#1 -45342834#0 44740902#8 -45342798#6 45342813#0 45342813#1 951370984#2 44740902#10 44740902#10.9 45342814#1 45342814#2 -45342816#1 -951370984#0 -45342803#6 -45342803#5 -44740885#8 -44740885#7 44740902#12 44740902#13 44740957#4 -671399051#1 -671399051#0 -44740942#1 -44740942#0 -974189220#4 951417475#1 44740901#2 44740957#6 44740957#7 951417474 -44740896#1 -44740896#0 44740901#5 -44740891#4 974189220#1 44740896#3 -44740959#1 -44740959#0 -44740895#2 -44740895#2.69 44740972#0 44740972#1 -44740969#4 -44740969#2 -951439006 -951439007 -951439008 955813295#1 955813295#1.169 955410233 -44740922#8 -44740930#10 44740923#0 44740989#1 -44740922#6 44740926#0 44740923#2 44740927#17 -44740967#4 -44740929#0 44740930#12 951421954 951421954.184 -44740929#9 -44740929#9.28 -44740929#8 -951439009 -44740962#1 -44740963 44740930#15 44740930#16 -44740967#2 -951438763#1 -951438763#1.52 -951438763#0 -951438763#0.72 -951438763#0.77 -951438763#0.80 -951438763#0.82 -951438763#0.85 44740929#3 -951438759 44740922#2 44740922#2.25 44740953#0 -951438764 -951438764.47 -951438764.119 -313316091#14 -313316091#14.20 -313316091#12 -313316091#11 951438765 -44740948#0 44740946#1 45378682#0 45378682#0.48 45378691 45378690#1 45378686#0 45378687#0 45378687#1 45378640#1 45378658#3 -45378683#3 -45378653#6 -45378685#3 -45378655#3 -45378684#1 -671178935 -45378685#1 -45378685#0 -45378685#0.42 -313316091#4 -313316091#4.67 -44739163#20 -44740919#1 44740931#1 -313316091#1 -313316091#1.32 -313316091#0 -313316091#0.27 -313316091#0.72 -313316091#0.80 45340579#18 45340579#18.164 45340579#19 45340579#19.12 45340579#19.84 45340579#20 45340579#20.80 955813297#0 -909019772#1 -909019772#1.10 -909019772#1.26 -909019772#1.29 -909019772#1.34 44740916#2 44740916#2.8 44740916#2.32 44740916#3 44740916#4 44740916#4.18 44740916#6 -909019789#0 -909019789#0.59 -909019789#0.61 -909019789#0.64 -909019789#0.68 44740933#1 44740933#2 44740933#3 44740933#3.108 44740933#3.192 -44740932#6 -44740932#5 -44740932#4 -44740932#3 -44740932#2 -44740934#4 668599377#0 668599377#0.33 668599376#0 668599376#0.34 909019780#0 909019780#1 -44740934#2 -44740934#1 -44740934#1.2 -44740934#0 -971495601#8 -971495601#7 -971495601#6 -971495601#5 -971495601#3 -971495601#1 -971495601#0 -313316086 -44739144#26 -44739144#24 903953326#0 903953326#1 -903953325#3 909778546#0 909778546#1 -909778547#0 -44739144#19 -44739144#19.14 702673217#0 909024262#0 909024262#1 909024262#1.26 -896786294#11 -896786294#11.13 -896786294#10 -896786294#8 -896786294#7 -896786294#7.20 -896786294#6 -896786294#5 -896786294#5.6 -896786294#5.10 -896786294#5.13 -896786294#5.16 -896786294#5.19 -896786294#5.22 -896786294#4 -896786294#3 -896786294#3.26 -896786294#2 -896786294#2.7 -702673217#5 -702673217#4 -702673217#3 -896786289#2 -877398366#18 -877398366#17 -877398366#17.7 904286386#0 904286386#1 904286386#1.27 904286386#2 904371474#0 904371474#0.21 904371473#0 904371473#1 904371473#1.24 904371469 -904286386#4 -904286386#4.23 904371470#1 904371470#2 896786290#1 896786290#1.24 896786290#2 -877396860#13 -904286380#1 -904286380#1.6 -904286380#1.33 904286383#3 904286383#3.17 -904286379 904286381#3 904286381#3.4 904286381#3.18 904286381#4 -951992355 904286375#0 904286375#1 904286373#0 904286373#1 904286373#2 904286373#2.10 904286373#3 904286373#3.20 904286373#3.23 904286373#4 -904371487#1 -904371487#1.16 -904371489#2 951973468#0 -904286385#5 -904286385#5.9 904371489#0 671191682#0 -671191681#3 -671191681#3.14 -671191681#2 -951973437#1 -951973438#1 -951973438#1.17 -951973438#1.20 -951973438#1.25 -951973438#1.31 -951973439 -951973436#0 -951973436#0.3 -951973436#0.8 -877395784#25 -877395784#25.55 -877395784#23 904371492#0 904371492#0.68 -904371493#5 904286385#2 904371491 904371492#3 904371492#4 904371492#5 -904371456#3 -951973471#3 -951973471#2 -951973471#2.11 -951973471#2.14 -951973471#2.17 -951973471#2.20 -904371456#1 -904371456#0 -904371456#0.17 -671191680#0 -671191680#0.38 -671191680#0.44 -671191680#0.48 -671191680#0.53 -671191680#0.58 -671191680#0.63 -671191680#0.76 896786327#1 896786327#1.7 896786327#1.13 896786327#1.48 896786327#1.94 896786327#1.144 896786327#1.150 896786327#1.154 896786327#1.158 896786327#1.163 896786327#1.169 -896786326#0 -896786328#0 -896786328#0.177 -951951638#10 -951951638#10.18 951973434#1 951951639#3 951973426#1 951973426#2 -952002224#6 -952002224#5 -952002224#5.5 -952002224#4 -952002224#4.27 -952002224#3 -952002224#3.30 -952002224#3.48 -952002224#3.80 904286410#0 904286410#0.33 904286409#0 951874860#2 904286402#1 951874861 904286409#2 904286409#2.7 -951874859#0 951874858#0 951874858#1 951874858#2 896786339#3 896786339#3.3 896786339#4 896786339#4.4 -904286410#3 -904286410#2 -904286411#3 951874850#0 951874850#1 951874850#1.25 951874850#1.28 951874850#1.31 951874850#1.34 951874850#1.54 951874850#1.57 951874850#1.59 951874850#1.62 -951874849#0 -951874848#0 -952002224#1 896786337#4 896786337#5 896786337#5.11 -951951639#15 -951951639#14 -951946794#0 951946792#1 896786337#8 896786337#8.8 896786337#10 896786337#10.21 -951887700#20 -951887700#19 -951887700#18 -951887700#17 -951887700#17.17 -951887689 -951887688#0 951887687#1 951887687#1.5 951887687#1.11 -951887700#15 -951887700#14 -951961240#3 -951961240#1 -951961245 951891772#0 -951891773 -951891771#0"/>
</vehicle>
<vehicle id = "veh19" type= "veh_passenger" depart="21630" >
<route edges =" 45342801#5 45342801#5.32 902433317#3 951421968#0 951421968#1 951421968#1.20 -951381446#1 951368598#1 -45344271#32 951368595#0 951368595#1 951368595#1.17 951368595#1.34 902433317#8 902433317#8.29 951368593#1 972507120#2 972507120#3 -951369746#4 -951369746#4.24 -951369746#4.27 -951369746#4.29 -951369746#2 -951369746#2.3 -951369746#2.36 -951369746#2.42 -951369746#2.45 -951369746#2.50 951369737#0 951369737#0.14 951369737#0.20 -951369738 -951369738.5 -951369738.18 -951369738.24 -951369738.31 951369741#4 -951369746#0 -951369746#0.7 -951369748#0 -951369748#0.14 -951369748#0.17 -951369748#0.19 -951369748#0.22 951379886#1 951379886#1.14 951379886#2 951379886#2.14 951379886#2.19 951379886#2.22 951379886#2.25 951379886#2.28 -951369741#1 -951369741#1.20 -951369741#1.25 -951369741#1.30 45344273#27 45344273#27.17 45344273#28 -876567894#62 -876567894#62.5 -876567894#62.35 951381443 951381443.47 951381443.49 951381443.52 951381443.54 951381443.57 45344273#30 45344273#30.8 45344273#30.25 45344273#30.39 45344273#31 45344273#31.5 45344273#31.16 45344273#32 45344273#32.22 45344273#32.44 45344273#33 45344273#34 45344273#34.26 45344278#0 45344278#0.58 45344278#0.62 45344278#0.65 45344278#1 45344278#2 45344278#2.33 45344278#3 45344278#4 950238180#0 -950238181#3 -950238181#3.14 -950238181#3.23 -950238181#3.29 -950238181#3.37 -950238181#3.46 -950238182#2 -950238182#2.10 -950238182#1 -950238182#1.7 -950238182#1.15 -950238182#1.25 -950238182#0 950238178#3 950238179#0 950238179#1 45344273#38 45344273#38.38 45344273#38.50 45344273#38.62 -950235700#3 950235699#0 950235699#1 -950732876 -950235697#0 -950235692#2 -950455053 950238177#0 950238177#0.24 950238177#0.27 950238177#0.31 950238177#0.61 950238177#0.78 950238177#0.94 950235705#0 950235705#1 950235705#1.22 950235705#1.46 950235705#1.60 950235705#1.74 950235705#1.85 -950455048#3 -950455048#3.28 -950455048#1 -950455048#1.49 -950455048#1.67 -950455048#1.78 950455051#0 950455051#0.11 950455051#0.26 950455051#0.42 950455051#1 950455051#1.2 950235703#3 950235694#4 950235694#4.8 950235694#4.19 950235694#4.29 950235694#4.38 950235694#4.48 950235694#4.103 950235694#4.115 950235694#4.119 950235694#4.123 950235694#4.127 951381436 951381436.26 951381436.34 951381436.39 951381436.45 897252875#2 897252875#2.4 -897252874 897252876#1 897252876#1.54 -45344336#9 -45344336#9.10 -45344336#9.61 -45344336#9.126 -45344336#9.147 -950455054 -45344320#5 -45344320#5.17 -897172091#13 -950400189 45344335#7 45344335#8 -45344336#7 -45344336#7.6 -45344336#6 -45344336#6.35 -45344336#5 -45344336#4 -45344336#3 -45344336#2 -45344336#1 -950238193#2 950553573 -45344284#1 -950553572 -950238193#0 45344280#14 45344280#14.13 45344280#15 45344283#5 -950553582#2 -950553582#2.27 950553580#0 950553579 950553579.70 950553579.75 950553579.82 -700278833#5 -700278833#5.31 -700278833#5.45 -950233989#1 -950233989#1.12 -950233989#1.22 -950233989#0 45344283#7 45344283#7.36 45344283#8 -950233988#0 -45344272#4 700254525#0 -700254523 -700254524#0 -950400191 -950400191.5 -950400191.10 -950400191.16 -950400191.25 -950235691#0 -950235691#0.4 -950235690#0 -950235690#0.14 -700254525#9 -700254525#8 950235689#0 -950400192#0 950400193#1 -950400194#0 950400195#2 950400195#2.6 45344335#0 45344335#0.43 45344335#1 -699875131#1 -699875131#0 -897172091#8 699875133 699875130#1 699875130#3 699875130#3.37 -897172091#0 -45344296#0 -45344296#0.92 -45344296#0.150 -901885452#0 -897252884#0 -45344329#1 951370979#0 -951440590 45344291#2 45344291#3 45344291#3.27 45344291#3.54 45344291#3.63 45344291#3.68 45344291#3.139 -951370958 45344288#1 45344288#1.10 45344288#1.64 45344288#1.123 45344288#1.180 45344288#2 45344295#1 45344295#1.21 45344295#1.34 45344295#1.62 45344305#0 45344290#5 45344290#5.39 45344290#5.109 -45344294#0 -45344304#5 -45344286#12 -45344286#11 -45344286#9 -45344286#9.15 -45344286#9.41 -45344286#9.67 -45344286#8 -45344286#7 -702632122#4 -702632122#4.41 -702632122#4.57 -702632122#4.62 -702632122#4.67 -702632122#4.71 -702632122#4.73 -702632122#4.77 -702632123#3 -702632123#2 -702632123#1 -702632123#1.4 702632122#0 702632122#0.6 702632122#0.10 702632122#0.14 702632122#0.18 702632122#0.49 702632122#0.55 702632122#0.60 702632122#0.66 702632122#0.72 702632122#0.90 702632122#0.93 702632122#0.96 702632122#0.98 702632122#0.100 702632122#0.108 702632122#0.114 702632122#0.117 702632122#0.121 702632122#0.128 702632122#1 702632122#1.17 702632122#1.20 702632122#1.23 702632122#1.27 702632122#1.31 702632122#1.38 -951440588 -951440588.7 -951440588.10 -951440588.13 -951440588.16 -951440588.21 -951440588.26 -951440588.30 -951440588.35 -951440588.39 -951440588.44 -951440588.72 -951440588.82 -951440588.90 -951440588.97 -951440588.103 -951440588.117 -951440588.121 -951440588.124 -951440588.126 -951440588.135 -951440588.140 -951440588.146 -951440588.151 -951440588.155 -951440588.159 -951440588.175 -951440588.198 -951440588.205 -951440588.210 -951440588.231 -951440588.236 -951440588.241 -951440588.245 -45344286#1 -45344286#1.19 -45344286#0 -45344307 -951441961 971495602#10 971495602#10.24 971495602#10.91 971495602#10.136 971495602#10.205 971495602#10.291 971495602#10.337 971495602#10.378 971495602#11 971495602#12 971495602#12.26 971495602#12.77 951442813 951442812#0 -896786335#50 -896786335#49 -896786335#48 -896786335#48.15 -951354780 -951354780.15 -951354780.24 -896892981#10 -896892981#10.8 -896892981#9 -896892981#8 -896892981#8.18 -896892981#8.50 -896892981#8.78 -951358829#1 -951358829#1.27 -951358829#1.80 950260764#0 950260764#0.14 950260764#0.20 950260764#0.27 950260764#0.78 950260764#0.85 950260764#0.90 950260764#0.94 950260764#0.98 950233984#2 950233984#2.61 -950233986#8 -950233986#8.2 951350967#0 951350967#0.40 951350967#1 951350967#1.12 951350967#2 896892981#3 896892981#4 896892981#5 951349912#0 951349912#0.14 951349912#0.18 951349912#0.25 951349912#0.33 951349912#0.69 951349912#0.72 951349912#0.74 951349912#0.76 951349912#1 951349912#1.12 951349912#1.14 951349912#1.16 951349912#1.19 -896786335#44 -896786335#44.9 -896786335#44.71 -896786335#43 -896786335#42 -896786335#42.22 -896786335#41 -896786335#40 -896786335#39 -896786335#39.27 -896786335#37 -896786335#36 -896786335#34 -908869252#3 -908869252#3.7 -908869252#3.13 -908869252#3.35 -908869252#3.57 -908869252#3.88 -908869252#3.90 -908869252#3.94 -908869252#1 -908869252#0 -908869252#0.17 -896786335#30 -896786335#29 -896786335#29.17 -896893017#1 -896893017#0 -896893016#0 -896893028#1 -896893028#1.14 -951998766#1 -951998766#1.58 -951998766#1.64 -951998766#1.69 -951998766#1.73 896892983#10 896892983#10.17 896786297#1 896786297#1.48 896786297#1.100 -877388646#5 -877388646#5.83 -951998772 896893027#1 896893027#1.21 -896893026#1 -896893026#1.16 -896893026#1.19 -896893026#1.21 -896893026#1.33 -896893026#1.37 -896893026#1.40 -896893026#0 -896786297#6 -896786297#6.39 -896786297#5 -896786297#5.15 -896893005#4 896893015#0 896893015#1 896893015#1.26 896893015#2 896893015#3 -896893018#0 877388728#14 -896786335#24 -896786335#23 -896786335#23.44 -896786335#22 -896893013#7 -896893013#7.29 -896893013#7.87 951995483 -896893004#2 -896893003 -896893013#5 -896893013#5.11 -896893013#5.13 -896893013#3 -896893013#3.24 -896893013#2 896893010 896893010.28 896893010.97 896893012#6 896893012#6.21 896893011#1 -896786335#19 -896786335#18 -896786335#17 -896786335#17.2 -896786335#16 -896786335#16.7 -896786335#15 -896786300#3 -896786300#3.27 -896893012#1 -896893012#0 -896893012#0.11 896786303#5 896786303#5.27 896786303#5.100 896786303#5.124 -896786301 -896786301.70 -896786303#3 -896786303#2 -896786303#2.23 -896786303#1 -896786303#1.61 -896786303#0 -896786311#12 -896786311#12.40 -951976011#1 951976010#1 -896786322 -896786322.14 -896786322.21 -896786323#1 896786325#4 896786325#4.12 -896786335#4 -896786335#4.18 -896786335#3 -896786335#3.10 -896786335#2 951976001#0 -951976002 -951976000#1 -951976000#0 -896786335#0 -951946803#2 -951946803#1 -951946803#1.55 -951946803#1.59 -951946803#1.61 -951946803#1.64 951946795#1 951946795#2 -951946801 951951639#6 951951639#7 951951639#8 951946799 951946795#6 951946795#7 951946795#9 951946795#10 951946795#11 951946795#11.34 951946795#11.40 951946795#11.45 -951887683 -951887684 -951887682#6 -951887682#5 951887686#0 951887686#1 -671756019#4 -951961235 951961234#1 -951878265#2 951878263#1 951878263#1.39 951878263#1.46 951878263#1.53 951878263#1.72 951878263#1.75 951878263#2 951878263#2.2 -951878266#4 -951878266#4.37 -951878266#2 -951878266#1 -951878266#1.39 -951878266#1.47"/>
</vehicle>
<vehicle id = "veh20" type= "veh_passenger" depart="21630" >
<route edges =" -45342801#4 45342799#23 45342799#25 45342799#25.7 45342799#25.22 951368597 902433317#7 -951368596 45342799#27 45342799#27.15 45342799#27.20 45342799#27.25 45342799#27.36 972507120#0 -903341083#3 -903341083#2 -903341083#1 -903341083#0 672813677#4 672813677#4.8 -903341082#0 -903341082#0.45 -45342801#2 -45342801#1 -45342801#0 45342798#2 45342809#4 45342810#0 45342838#0 -671416443#2 -671416443#1 -671416443#0 671416444#2 45342810#2 -45342840#0 -45342798#0 -45344273#21 -45344273#21.28 -45344273#19 45344322#0 45344322#1 45344322#2 897252876#6 897252876#7 951404487 951404487.59 951404487.67 951404487.76 951404487.86 951404487.92 951404487.99 951404487.110 951404487.135 951404487.151 951404487.162 951404487.176 951404487.182 951404487.187 951404487.193 -45344273#16 -45344273#16.5 -45344273#16.30 -45344273#14 -45344273#14.32 -45344273#13 -45344273#12 -45344273#11 -45344273#10 -45344273#10.42 -45344273#9 -45344273#8 -45344273#8.10 -45344273#7 -45344273#7.22 -45344273#6 -45344273#6.40 -45344273#6.59 -45344273#5 -45344273#5.6 -45344273#5.15 -45344273#4 -45344273#4.8 -45344273#4.37 -45344273#3 -45344273#3.6 -45344273#3.14 -45344273#3.31 -45344273#3.48 -45344273#2 -45344273#2.6 -45344273#2.24 -45344273#1 -45344273#1.7 -45344273#0 -897252881 -45378637#10 -45378637#9 -951404484#10 -951404484#9 -951404484#9.20 -951404484#8 -951404484#6 951404482 45378639#9 45378639#10 45378639#11 45378639#12 45378639#12.8 -45344310#1 -45344310#0 -45344310#0.10 -45344310#0.18 -45344310#0.30 -45344310#0.41 -45344310#0.52 971495602#8 971495602#8.24 971495602#8.86 -313316104#6 -313316104#5 -313316104#5.12 -313316104#5.27 -313316104#5.46 -313316104#4 -313316104#4.4 -313316104#4.18 -313316104#4.31 -313316104#4.41 -313316104#4.56 -313316104#3 -313316104#2 -313316104#2.13 -313316104#2.35 -313316104#2.44 -313316104#1 -313316104#0 -313316082 -45378649#12 -45378649#11 -45378649#11.22 -45378649#10 -45378649#10.20 -45378649#9 -45378649#9.7 -45378649#7 -45378649#7.4 -45378649#5 -45378649#5.24 -45378649#5.57 -45378649#5.68 -45378649#3 -45378649#3.8 -45378649#2 -45378649#2.8 -45378649#1 -951354765#1 -951354765#1.60 -951354765#1.64 -951354765#1.67 -951354765#1.70 -951354765#1.74 -951354765#1.99 -951354765#0 -896786265#6 -896786265#6.26 896786253 896786253.47 896786253.111 896786263#4 -951358821#2 -951358821#2.84 -951358821#2.87 -951358821#2.89 -951358821#2.91 -951358821#2.98 -951358821#1 -951358821#0 -951358821#0.3 -951358821#0.6 -951358821#0.9 -951358822#0 -951358822#0.4 -951358822#0.8 -951358822#0.13 -896786265#2 -896786265#0 909024253#0 951995490#0 951995490#1 951995490#1.10 951995490#1.14 951995490#1.17 951995490#1.20 909024250#2 909024250#4 909024250#5 909024250#6 909024239#0 909024239#1 909024239#1.17 909024239#2 909024239#2.40 877398366#3 -951995475#3 -951995475#2 896786292#0 896786292#0.10 896786292#2 896786292#2.23 896786292#2.61 896786292#3 896786287#2 -877396033#5 -877396033#5.40 -877396033#4 -877396033#4.15 896786285 896786285.95 -877398366#9 -877398366#8 -877398366#8.18 -877398366#8.84 -904371459 -904371459.17 -904371459.33 904371460#2 904371460#2.34 904371458#0 904371458#0.18 904371458#1 877396860#6 877396860#7 -951995474 -904371460#0 -904371460#0.8 -904371462#1 -904371462#1.14 -904371462#1.100 877396860#9 877396860#9.41 877396860#10 877396860#11 -904286382#1 -904286382#0 -904286381#0 -671191680#11 -671191680#9 -904371467#2 -904371467#2.49 -904371467#2.113 904371464 896786325#1 896786325#2 -896786324#1 -896786324#0 -896786324#0.19 -896786324#0.132 -896786324#0.177 -877395784#19 -877395784#17 -877395784#17.8 -877395784#17.24 896786335#0 951976000#0 -951975999 951946833#0 951946816#12 951951634#0 951951634#1 951951634#1.75 951951634#1.79 951951634#1.82 951951634#1.86 951951632#2 951951632#2.8 951951632#2.12 951951632#2.16 951946833#6 951951631#0 951951631#1 951951636 951946817#5 -951946833#3 951951641 951946817#3 -951946818#3 -951946818#3.18 -951946818#3.21 -951946818#2 -951946818#0 951946833#9 951946833#9.22 -951951630 -951946806#1 -951946806#1.48 -951946806#1.55 -951946806#1.61 -951946806#1.69 -951946806#1.82 -951946806#1.90 -951946806#1.98 -951946806#0 -952365020 -952365021 -951878231#2 -951878231#1 -951878231#1.26 -951878231#0 951951645 -951951643#3 -951951646 -951951642#2 -951951642#1 -951951642#0 -951878263#5 -951878269#15 -951878269#14 -951878269#13 -951878269#12 951878270#0 951878270#0.33 951878270#0.36 951878270#0.39 951878270#0.42 951878270#2 877401978#0 951887660#0 951887660#2 -951887662 951887661#2 951887661#3 951878266#0"/>
</vehicle>
</routes>
