<?xml version="1.0" encoding="UTF-8"?>
<routes xmlns:xsi="http: // www.w3.org/2001/XMLSchema-instance" xsi:noNamespaceSchemaLocation="http: // sumo.dlr.de/xsd/routes_file.xsd">
<vType id="veh_passenger" vClass="passenger"/>

<vehicle id = "veh0" type= "veh_passenger" depart="0" >
<route edges =" -316633577#1 -316633577#0 -797309094#1 -797309094#0 -797309094#0.6 -797309094#0.12 -797309095 -165864174#3 -165864174#2 -165864174#1 -34361024#1 -34361024#0 -34361024#0.80 -188703042#5 -188703042#4 -188703042#4.59 -188703042#3 -188703042#3.6 -188703042#3.24 -188703042#2 -188703042#1 -188703042#1.59 -188703042#1.74 -188703042#0 -188703042#0.9 -188703042#0.21 -188703049 -201989352#2 -201989352#2.8 -201989352#1 -201989352#1.9 -201989352#1.29 -201989352#0 -34361041#1 -34361041#0 -34361041#0.92 -528122494 -528122494.9 -6360234#7 -6360234#6 -6360234#6.186 -6360234#6.194 -168627934#0 -168627934#0.7 -34811472#12 -34811472#12.8 -34811472#11 -34811472#10 -34811472#9 -34811472#9.6 -34811472#9.49 -34811472#8 -34811472#7 -34811472#6 -34811472#5 -34811472#4 -34811472#4.71 -34811472#3 -34811472#3.7 -34811472#3.66 -34811472#3.122 -34811472#3.194 -34811472#2 -34811472#2.8 -34811472#2.70 -34811472#2.135 -34811472#2.192 -24024251#2 -24024251#2.7 -910274653#0 -930646447 -910274656 -210456949#12 -210456949#12.41 -210456949#11 -210456949#10 -210456949#9 -210456949#9.190 -210456949#8 -210456949#8.10 -26379345#9 -26379345#8 -26379345#8.93 24028181#3 24028181#4 24028181#4.122 24028181#5 24028181#5.186 -190017518#0 -190017518#0.7 -190017518#0.88 -999534620#25 -999534620#24 -999534620#24.3 -541349569 -541349569.193 -6356133#2 -6356133#2.8 -6356133#2.193 -6356133#1 -6356133#1.9 -6356133#0 -541349570 -819368215#0 -819368215#0.76 415870533#8 415870533#8.6 415870533#9 415870525#0 415870525#0.13 415870525#1 415870525#2 22370937#0 22370937#1 22370937#2 22370937#3 22370937#3.6 22370937#4 22370937#4.6 22370937#5 22370937#5.11 22370937#6 22370937#7 415870519#0 415870519#1 415870531#0 415870531#1 415870531#1.26 415870531#2 22370936#0 22370936#0.7 22370936#0.14 -6353149 1014203284#2 -30832687#3 -30832687#3.8 422792872#1 422792872#1.9 -6346111#4 -6346111#4.91 -6346111#4.93 195433868#5 195433868#5.7 195433868#6 195433868#6.6 -7840628#2 -7840628#2.8 -7840628#1 -7840628#1.193 168627943#7 168627943#7.7 -24164451#1 -24164451#1.7 -24164451#1.193 -24164451#0 24164453 24164453.10 24164453.23 32456680 32456680.2 -422947668 -422947668.11 -233686193 -233686193.8 -196750859#2 -196750859#1 -196750859#1.40 6378198#0 6378198#0.13 6378198#0.178 6378198#0.195 6378198#1 6378198#2 6378198#3 6378198#3.3 6378198#4 6378198#4.3 697544433#2 697544433#2.14 6351007#0 6351007#0.29 6351007#0.46 6351007#0.52 6351007#0.56 6351007#0.62 6351007#0.66 6351007#0.72 6351007#0.77 6351007#0.83 6351007#0.89 6351007#0.98 6351007#1 -6332167#0 -6332167#0.10 6386692#3 6386692#3.3 6386692#3.6 6386692#3.9 6338567#0 6338567#0.10 6338567#0.118 6338567#1 6338567#1.107 6338567#2 6338567#3 6338567#3.80 6338567#4 6338567#4.78 6338567#5 6338567#5.8 6338567#6 6338567#7 6338567#7.90 6338567#8 6338567#8.11 6338567#9 6338567#10 6338567#11 6338567#12 30156401#0 -6333513#3 -6333513#3.137 -11043363#3 -11043363#3.7 -11043363#2 -11043363#1 -11043363#0 7857575#0 7857575#0.10 7857575#0.24 7857575#0.39 7857575#0.57 7857575#0.75 7857575#0.88 7857575#0.126 7857575#0.144 7857575#0.146 7857575#0.162 7857575#0.184 7857575#0.212 7857575#0.218 7857575#0.224 7857575#0.229 7857575#0.241 7857575#0.275 7857575#0.303 7857575#0.315 7857575#0.324 7857575#0.326 7857575#0.339 7857575#0.350 7857575#0.357 7857575#0.360 7857575#0.410 7857575#1 7857575#1.42 7857575#1.66 7857575#1.85"/>
</vehicle>
<vehicle id = "veh1" type= "veh_passenger" depart="0" >
<route edges =" 797309093 797309091#0 797309091#0.10 797309091#1 797309091#1.7 797309091#2 797309091#2.10 797309091#2.15 797309091#3 377635148 377635148.3 377635148.5 -437142992 -437142992.6 -6329160 -6329160.124 -6329160.133 785854260#3 785854260#3.11 785854260#3.30 -763290363 -763290363.11 -24620691#4 -24620691#3 -24620691#2 -24620691#1 -24620691#0 24620690 24620690.5 -24620688 24620689#0 24620689#0.6 24620689#1 24620689#1.9 -201989358#2 -201989358#2.18 -201989358#1 -201989358#1.6 -201989358#1.82 -201989358#0 -195430724#15 -195430724#14 -195430724#14.20 -195430724#13 -195430724#13.78 -195430724#12 -195430724#12.8 -195430724#12.12 -195430724#11 -195430724#11.17 -164659478#5 -164659478#5.7 -164659478#4 -6362542#1 -6362542#1.7 -6362542#0 -6362542#0.104 -7783135#3 -7783135#3.7 -7783135#2 -7783135#2.7 -7783135#1 -7783135#0 -7783135#0.101 43256415 43256415.22 -6345181#8 -6345181#8.4 -6345181#8.7 -6345181#8.93 541334899#0 541334899#0.7 541334899#1 541334899#2 541334899#3 541334899#4 541334899#5 541334900#0 541334900#1 541334900#2 541334900#3 541334900#4 541334900#5 541334900#6 698994092#3 698994092#4 698994092#4.84 6348015 6348015.7 761330890 761330889#0 761330889#1 761330889#2 761330889#3 761330889#3.83 761330889#4 517593873#2 517593873#2.29 517593873#3 415876778 22278225#0 22278225#0.24 22278225#1 22278225#1.6 22278225#1.16 22278225#1.26 196779231#0 196779231#0.12 196779231#1 196779231#1.17 21452694#0 21452694#0.5 21452694#0.7 21452694#0.9 21452694#0.14 21452694#0.21 21452694#0.27 21452694#0.101 21452694#1 21452694#1.9 21452694#1.14 21452694#1.27 21452694#2 415878130#0 415878130#1 415878131#0 415878131#1 682209186 196779232 196779232.9 415878126 415878126.6 415878137#0 415878137#1 194859188#0 194859188#1 194859188#1.24 415878134#0 415878134#1 202177316#0 202177316#1 202177316#2 415878127 415878127.3 415878136#0 415878136#1 -415876790#1 -415876790#0 -756453993 -559526390 -559526390.35 -164658213#11 -164658213#11.10 -164658213#11.12 -164658213#10 -164658213#10.55 -164658213#9 -164658213#8 -164658213#7 -164658213#6 -164658213#6.156 -164658213#5 -164658213#5.7 -164658213#4 -164658213#4.36 -164658213#3 -164658213#2 -164658213#1 -164658213#0 -164658213#0.113 164658212#0 164658212#0.7 164658212#1 193256683#0 193256683#1 193256683#1.83 -618189913#5 -618189913#5.7 -618189913#5.17 -618189913#5.34 -618189913#4 -618189913#4.5 -618189913#4.9 -618189913#4.25 -618189913#3 -618189913#2 -618189913#1 -618189913#1.76 -618189913#1.91 -618189913#0 -618189913#0.6 -618189913#0.24 -618189913#0.90 -618189913#0.190 -618189913#0.204 -618189913#0.219 -618189913#0.231 -694455409#6 -694455409#6.8 -694455409#6.11 -694455409#6.20 -694455409#6.38 -694455409#5 -694455409#5.10 -694455409#5.23 -694455409#5.42 -694455409#5.118 6402116#0 6402116#0.7 6402116#0.10 6402116#0.16 6402116#0.20 6402116#0.54 6402116#0.162 6402116#0.179 6402116#0.194 6402116#0.209 6402116#0.228 6402116#0.245 6402116#0.264 6402116#0.286 6402116#0.307 6402116#0.326 6402116#0.377 6402116#0.411 6402116#0.433 -190579762#17 -190579762#17.47 6341488#16 6341488#16.13 6341488#16.20 6341488#16.48 6341488#16.58 6341488#16.72 6341488#16.96 6341488#16.142 6341488#16.158 6341488#16.170 6341488#16.183 6341488#16.197 -6336093#4 -6336093#4.17 -6336093#4.38 -6336093#4.53 -6336093#4.79 -6336093#4.90 -6336093#3 -6336093#3.13 -6336093#3.25 -6336093#3.39 -6336093#3.120 -6336093#3.127 -6336093#3.135 -6336093#2 -6336093#1 -6339085#8 -6339085#8.12 -6339085#8.19 -6339085#8.28 -6339085#8.38 -6339085#8.98 -6339085#8.116 -6339085#7 -6339085#7.29 -6339085#7.47 -6339085#7.68 -6339085#7.87 -6339085#7.110 -6339085#6 -6339085#5 -6339085#5.13 -6339085#5.24 -6339085#5.39 -6339085#4 -6339085#4.58 -6339085#4.92 -6339085#4.103 -6339085#3 -6339085#3.11 -6339085#3.19 -6339085#3.40 -6339085#3.47 -6339085#3.56 -6339085#3.68 -6339085#3.81 -6339085#3.95 -6339085#3.107 -6339085#3.120 -6339085#2 -6339085#2.14 -6339085#2.26 -6339085#2.37 -6339085#2.49 -6339085#2.63 -6339085#2.115 -6339085#2.125 -6339085#2.140 -6339085#1 -6339085#0 -6339085#0.12 -6339085#0.27 -6339085#0.45 -6339085#0.77 -6339085#0.87 -6339085#0.98 -6339085#0.119 -6339085#0.129 -190579779#0 -190579779#0.109 -190579779#0.117 6333513#0 6333513#0.10 6333513#0.40 6333513#0.51 6333513#0.62 6333513#0.73 6407689#0 -11043364#4 -11043364#3 -11043364#2 -11043364#1 -11043364#0 -11043364#0.73 -11043364#0.81 -7857575#1 -7857575#1.27 -7857575#1.57 -7857575#1.75 -7857575#1.83 -7857575#1.99 -7857575#1.115 -7857575#1.152 -7857575#1.166 -7857575#1.179 -7857575#1.219 -7857575#1.229 -7857575#1.268 -7857575#1.290 -7857575#1.315 -7857575#1.332 -7857575#1.343 -7857575#1.361 -7857575#1.378 -7857575#1.390 -7857575#1.402 -7857575#1.416 -7857575#1.443 -7857575#1.452 -7857575#1.462"/>
</vehicle>
<vehicle id = "veh2" type= "veh_passenger" depart="3605" >
<route edges =" -316633577#1 -316633577#0 -797309094#1 -797309094#0 -797309094#0.6 -797309094#0.12 -797309095 -165864174#3 -165864174#2 -165864174#1 24501620#0 24501620#1 785854260#0 785854260#0.69 6398666 6398666.10 6398666.21 6398666.28 6398666.44 6398666.54 6398666.61 6398666.69 6398666.77 6398666.85 6398666.106 435129986 -188703042#5 -188703042#4 -188703042#4.59 6402088#1 6402088#1.8 6402088#1.193 -24620691#3 -6347955 -6347955.7 -188703042#2 -188703042#1 -188703042#1.59 -188703042#1.74 6338310#2 6338310#2.9 -34361036#1 -34361036#1.6 -34361036#1.121 -34361036#1.126 -34361036#1.131 -34361036#1.135 -34361036#0 -34361036#0.5 -201989352#2 -201989352#2.8 -201989352#1 -201989352#1.9 -201989352#1.29 -201989352#0 201989358#0 201989358#1 201989358#1.13 201989358#1.90 -25340074 -25340074.8 -25340074.86 -34361042 -34361042.8 -34361042.97 -528122493#2 -528122493#2.7 -528122493#1 -528122493#0 -6362542#4 -6362542#4.10 -6362542#3 -6362542#3.78 -6362542#3.89 -6362542#3.98 -6362542#3.102 -164659477#7 -164659477#7.9 -164659477#7.96 -6344566#3 -6344566#3.8 -6344566#3.11 -6344566#3.20 -6344566#3.32 -23226443#9 -23226443#9.67 -23226443#9.84 -23226443#8 -23226443#8.64 -574299582#9 -574299582#9.7 -574299582#8 -574299582#8.52 -574299582#8.71 -574299582#7 -574299582#6 -574299582#5 -574299582#4 -574299582#3 -574299582#3.1 -6388344 -6388344.12 -164659449#0 -164659449#0.48 164659493#1 164659493#1.1 164659493#1.3 164659493#1.4 164659493#1.6 164659493#2 164659493#2.1 164659493#2.3 164659493#2.5 164659493#2.7 -164659450#1 -164659450#1.3 -164659450#1.87 -23226443#1 -23226443#1.8 -23226443#1.192 -23226443#0 -23226443#0.7 -23226443#0.244 -416111322 -416111322.7 -515885395#2 -515885395#2.24 -515885395#1 -515885395#1.14 -515885395#1.35 819364512#4 819364512#4.8 819364512#5 819364512#6 25315893 25316476 25316476.7 25315896#0 25315896#0.27 25315896#1 -6342542#3 -6342542#3.171 -421385008#2 -421385008#2.7 -421385008#1 -421385008#1.16 6344484#1 6344484#1.8 25315896#3 25315896#3.66 25315896#3.71 229957845 229957845.4 229957845.6 229957845.10 229957845.15 229957845.18 -10723756#6 -10723756#6.13 -10723756#6.28 -10723756#6.160 -10723756#5 -10723756#5.9 -6404960 6334729#2 6334729#2.41 -6372435#4 -6372435#4.116 -6372435#4.220 -6372435#3 -6372435#3.8 -6372435#2 -6372435#1 -6342542#1 -6342542#1.88 -6342542#0 196739917#8 196739917#9 196739917#10 198549475#0 198549475#1 198549475#1.3 198549475#2 198549475#2.171 421385008#5 421385008#5.7 421385008#6 417696932#0 417696932#0.10 417696932#1 -778470340#6 -778470340#5 -778470340#5.17 -778470340#4 -778470340#3 -6383013 -6383013.10 -819364512#2 -819364512#1 202317699#4 202317699#5 202317699#6 202317699#7 202317699#8 202317699#9 202317699#10 202317699#10.21 202317699#11 202317699#12 1000720853#0 1000720853#1 1000720853#1.19 1000720853#2 1000720853#3 1000720853#4 1000720853#5 1000720853#6 1000720853#7 1000720853#7.136 164659511#4 164659511#0 164659511#0.1 164659511#0.3 164659511#0.4 164659511#1 164659511#1.1 164659511#1.2 164659511#1.4 164659511#1.5 164659479 164659479.3 164659479.186 164659505#4 164659505#0 164659505#0.1 164659505#0.2 164659505#0.4 164659505#1 164659505#1.1 164659505#1.3 164659505#1.4 164659505#1.6 515883300#0 515883300#0.3 515883300#1 515883300#2 515883300#3 515883300#4 164659478#0 164659478#1 164659478#2 164659478#2.41 164659478#2.70 164659478#2.127 164659478#3 164659478#3.7 164659478#4 164659478#5 164659478#5.101 6332541#0 6332541#0.7 6332541#1 -24620185#2 -24620185#2.7 -24620185#2.83 -6347525#0 -6347525#0.7 -6347525#0.198 -195430724#7 -195430724#7.8 -195430724#6 -195430724#6.35 -195430724#5 -195430724#5.10 -195430724#5.24 6369662#0 6369662#0.8 -6382818#1 -6348367#0 -6348367#0.92 195430724#2 195430724#2.8 -164659473#12 -164659473#12.8 6360234#4 6360234#5 6360234#5.24 6360234#5.33 -168627934#0 -168627934#0.7 -34811472#12 -34811472#12.8 -34811472#11 -34811472#10 -34811472#9 -34811472#9.6 -34811472#9.49 -34811472#8 -34811472#7 -34811472#6 -34811472#5 -34811472#4 -34811472#4.71 25316538#6 25316538#6.7 25316538#6.92 -164659481#3 -164659481#2 -164659481#1 -164659481#0 -164659481#0.122 164659489#2 164659489#2.1 164659489#2.3 164659489#2.4 164659489#2.6 164659489#3 164659489#3.1 164659489#3.3 164659489#3.4 164659489#3.6 -164659482 -164659482.3 -164659482.186 164659515#2 164659515#2.1 164659515#2.3 164659515#2.4 164659515#2.6 -24024251#3 -24024251#3.3 -24024251#3.88 -24024251#2 -24024251#2.7 -910274653#0 -930646447 -910274656 -210456949#12 -210456949#12.41 -210456949#11 -210456949#10 32456661#2 32456661#2.7 32456661#3 32456661#3.36 32456661#4 32456661#4.8 32456661#4.92 6384487#14 6384487#14.6 6384487#14.9 6384487#15 6384487#16 6384487#17 6384487#17.26 6384487#17.33 6384487#17.39 6384487#18 1000718782#3 6351923#0 6351923#0.6 6351923#0.22 6351923#1 -6332538#10 -6332538#9 -6332538#9.6 -6332538#8 -6332538#8.9 -6332538#8.17 -6332538#8.27 -6332538#7 -6332538#7.26 -6332538#7.30 -6332538#6 -6332538#6.8 -6332538#6.187 -6332538#6.190 -6332538#5 -6332538#5.10 -6332538#5.14 -6332538#5.141 26379345#13 26379345#13.7 26379345#13.93 -25968351#1 -25968351#1.6 -25968351#1.77 -25968351#1.134 -25968337#14 -25968337#13 -25968337#13.48 -25968337#12 -25968337#12.7 -25968337#11 25968350#1 25968350#1.193 25968350#2 25968350#2.9 25968350#2.151 25968350#3 -201989365#5 -201989365#4 -201989365#4.4 -201989365#4.16 -201989365#4.82 -201989365#3 -201989365#3.8 -201989365#3.73 -201989365#3.91 -25968342#3 -25968342#3.10 -25968342#3.171 -26379345#8 -26379345#8.93 24028181#3 24028181#4 24028181#4.122 -25968337#6 -25968337#6.87 -25968337#6.89 999534620#28 999534620#28.8 999534620#28.11 -22649938#1 -22649938#0 -22649938#0.57 -22649938#0.69 -22649938#0.164 -22649938#0.169 -22649938#0.172 423105092#0 423105092#0.4 423105092#0.8 423105092#0.11 -26379345#3 -26379345#3.7 -26379345#3.9 -26379345#2 -26379345#2.64 -164659430#2 -164659430#2.8 -6404288#3 -6404288#3.10 -23874081#1 -23874081#1.92 25968337#3 25968337#3.7 25968337#3.191 25968337#3.193 -164659430#0 -164659430#0.8 6373282#0 6373282#0.6 6373282#0.193 6373282#1 6373282#1.8 -999534620#26 -999534620#26.51 -999534620#26.67 -999534620#26.74 -190017519 -190017519.7 25968341 25968341.18 25968341.56 -999534620#24 -999534620#24.3 -999534620#23 -999534620#23.52 -999534620#23.73 -999534620#22 415870533#0 415870533#1 415870533#1.183 415870533#1.187 164659441#2 164659441#2.7 164659441#2.9 -6356133#2 -6356133#2.8 -6356133#2.193 -541349219#2 -541349219#2.75 -541349219#2.77 415870533#3 415870533#3.7 415870533#4 415870533#5 415870533#6 415870533#7 415870533#7.17 415870533#7.70 415870533#7.162 415870533#7.211 415870533#8 415870533#8.6 415870533#9 415870525#0 415870525#0.13 415870525#1 415870525#2 22370937#0 22370937#1 22370937#2 22370937#3 22370937#3.6 22370937#4 22370937#4.6 22370937#5 22370937#5.11 22370937#6 22370937#7 415870519#0 415870519#1 415870531#0 415870531#1 415870531#1.26 415870531#2 415870531#3 415870531#4 415870526#0 415870526#0.35 415870526#1 1014203284#0 1014203284#0.7 1014203284#1 6353149 22370936#1 22370936#1.74 -30832687#4 -30832687#4.92 -30832687#3 -30832687#3.8 -422792872#0 -422792872#0.10 -422792872#0.179 415870529#2 415803769#0 415803769#1 195433879#0 195433879#1 195433879#1.15 195433879#1.152 195433879#1.162 188858625#0 188858625#1 574396276#2 574396276#3 164658838#0 164658838#1 426767275 426767274 -24164436 -24164436.57 -24164436.115 -113629978#3 -113629978#3.7 -113629978#2 -113629978#2.67 -6336821#0 -415803771#2 195595366#4 195595366#5 195595366#6 195595366#7 195595366#8 195595366#8.11 195595366#8.14 7913792#0 7913792#0.7 7913792#0.28 7913792#0.38 7913792#0.46 7913792#1 7913792#1.7 7913792#2 7913792#2.5 7913792#2.11 24164438 24164438.2 24164438.5 24164438.18 24164438.99 -6346104#0 -6346104#0.6 30832948#3 7913793 7913793.8 7913793.258 -168627943#2 -168627943#1 6346111#0 -166409141#0 -166409141#0.11 -422929504 -422929504.11 -422929505#1 6339229#1 195433868#2 195433868#2.85 -30832687#1 -30832687#1.7 -30832687#1.9 6336003#0 6336003#0.14 6347574 195433868#4 195433868#4.108 195433868#5 195433868#5.7 -6333700#2 -6333700#2.7 -6333700#2.9 -6333700#1 -6333700#1.92 -6333700#1.94 6398141#1 6398141#1.7 6398141#1.10 6398141#2 6398141#2.93 -24164451#3 -24164451#3.6 -24164451#3.8 -24164451#3.104 -24164451#2 -24164451#2.59 168627943#8 168627943#9 168627943#10 32866188#0 32866188#1 32866188#1.15 32866188#1.175 32866188#1.186 32866188#2 32866188#2.7 32866188#2.20 32866188#3 415884013#0 415884013#0.1 415884013#1 415882499#0 415882499#1 415882499#1.2 415882499#1.85 6388365#5 6388365#5.6 6388365#5.8 6388365#5.193 6388365#5.195 -24314605#5 -24314605#5.92 -24314605#5.96 -24314605#4 -24314605#4.7 -24314605#4.8 -24314605#3 -24314605#2 30909407#3 30909407#4 7841698#4 7841698#4.7 7841698#4.8 7841698#5 7841698#5.31 7841698#5.33 7841698#6 7841698#6.7 7841698#6.10 7841698#7 7841698#7.91 7841698#7.92 -23089173#3 -23089173#3.7 -23089173#3.25 -23089173#3.53 -23089173#3.64 -23089173#3.76 -23089173#3.93 -23089173#2 -23089173#2.6 -23089173#2.28 -23089173#2.39 -23089173#2.51 -23089173#2.57 -23089173#2.90 -23089173#2.93 -23089173#1 -23089173#1.7 -23089173#1.34 -23089173#1.39 -23089173#1.46 -23089173#1.58 -23089173#1.64 -23089173#1.71 -23089173#1.81 -23089173#1.94 -23089173#0 -23089173#0.4 -23089173#0.22 -23089173#0.31 -23089173#0.41 -23089173#0.49 -23089173#0.55 -23089173#0.93 -23089173#0.95 415882499#3 415882499#3.5 -6339837#6 -6339837#6.7 -6339837#5 -6339837#5.94 -6398141#6 -6398141#6.6 -6398141#6.93 -6398141#5 -6398141#5.7 -6398141#5.93 -6388365#2 -6388365#2.6 -6388365#2.8 -6388365#2.194 -6388365#1 -6388365#1.7 -6388365#1.193 -6388365#0 -6388365#0.7 -6388365#0.178 -6388365#0.190 -6388365#0.204 -6388365#0.217 -6356111#0 -6356111#0.89 -415884035#1 -415884035#0 -195595386#2 -195595386#2.4 -195595386#1 -195595386#1.5 -195595386#0 -460683946#1 -460683946#0 -415884036 -415884036.2 -417526452 -417526452.5 -417526452.27 -417526430 -196750859#2 -196750859#1 -196750859#1.40 6378198#0 6378198#0.13 6378198#0.178 6378198#0.195 6378198#1 6378198#2 6378198#3 6378198#3.3 6378198#4 6378198#4.3 697544433#2 697544433#2.14 6351007#0 6351007#0.29 6351007#0.46 6351007#0.52 6351007#0.56 6351007#0.62 6351007#0.66 6351007#0.72 6351007#0.77 6351007#0.83 6351007#0.89 6351007#0.98 6351007#1 6332167#1 6332167#1.41 6332167#1.56 6332167#1.75 6332167#1.96 6332167#1.109 6332167#1.124 6332167#1.145 6332167#1.164 541338171#0 541338171#1 541338171#1.7 541338171#1.52 541338171#1.99 541338171#1.141 -189843769 -189843769.9 -189843769.16 -189843769.21 -189843769.40 -189843769.53 -189843769.65 -189843769.81 -189843769.92 -189843769.102 -189843769.112 -189843769.128 -189843769.138 -189843769.147 -189843769.158 -189843769.175 -189843769.191 -189843769.207 -189843769.220 -189843769.234 -189843769.257 -189843769.278 -189843769.293 -189843769.305 -189843769.317 -189843769.329 -189843769.366 -189843768 -189843768.9 -6372673#1 -6372673#1.8 -6372673#1.20 6338567#2 6338567#3 6338567#3.80 -11154779#8 -11154779#8.6 -11154779#8.12 436204257#0 436204257#0.6 436204257#0.13 436204257#1 436204257#1.75 436204257#1.112 -185579357 -185579356#2 -185579356#2.10 -185579356#2.19 -185579356#2.27 -185579356#2.33 -185579356#1 -185579356#1.45 -185579356#0 -185579356#0.10 -185579356#0.16 -185579356#0.23 -185579356#0.31 -185579356#0.40 -185579356#0.49 -185579356#0.60 -185579356#0.108 -185579356#0.115 -185579356#0.122 -6346496#3 -6346496#3.7 -6346496#3.24 -6346496#2 -6346496#2.23 -6346496#1 -6346496#0 -6346496#0.31 -6346496#0.45 -6346496#0.55 -6346496#0.65 -6346496#0.81 -6346496#0.95 -6346496#0.121 -6346496#0.138 11152046#1 11152046#1.2 11152046#1.11 11152046#1.22 11152046#2 11152046#2.16 11152046#2.24 11152046#2.29 11152046#2.35 11152046#2.40 11152046#2.47 11152046#3 11152046#3.18 11152046#3.56 11152046#3.65 11152046#3.81 11152046#3.90 11152046#3.109 11152046#4 11152046#4.6 11152046#4.11 11152046#4.18 11152046#4.48 -6374520#2 -6374520#2.14 -6374520#2.25 -6374520#1 -6374520#1.14 -6374520#0 -6374520#0.39 -694236847#2 -694236847#1 -694236847#1.12 -694236847#1.36 -694236847#1.51 -694236847#1.66 -694236847#1.99 -694236847#1.110 -694236847#1.124 -694236847#1.167 -694236847#1.210 -694236847#1.242 -694236847#0 -694236847#0.15 -694236847#0.34 -694236847#0.61 -694236847#0.95 -694236846#1 -694236846#0 11154776#10 11154776#10.5 11154776#10.25 11154776#10.62 11154779#0 11154779#0.82 11154779#0.108 11154779#0.137 11154779#0.162 11154779#0.189 11154779#0.208 11154779#1 11154779#2 11154779#3 11154779#3.11 11154779#3.23 11154779#3.44 11154779#4 11154779#4.19 11154779#5 11154779#5.12 11154779#5.91 11154779#5.98 11154779#5.104 11154779#6 11154779#6.16 11154779#6.25 11154779#6.50 11154779#6.61 11154779#6.70 11154779#6.80 11154779#6.93 6358815#1 6358815#1.12 6358815#1.27 6358815#1.43 6358815#1.56 6358815#1.69 6358815#1.82 6358815#1.118 6358815#1.128 6358815#1.136 6358815#1.143 6358815#1.151 6358815#1.159 6358815#1.173 6358815#1.183 193256686#17 193256686#17.12 193256686#17.22 193256686#17.56 193256686#17.72 193256686#18 193256686#18.11 193256686#18.14 193256686#18.23 193256686#18.36 193256686#18.49 193256686#18.64 193256686#18.77 193256686#18.90 193256686#18.121 193256686#18.152 193256686#18.172 193256686#18.180 193256686#18.196 193256686#18.203 6338567#5 6338567#5.8 6338567#6 6336095#2 6336095#2.8 6336095#2.26 6336095#2.155 6336093#0 6336093#0.13 6336093#0.28 6336093#0.38 6336093#0.123 -6339085#8 -6339085#8.12 -6339085#8.19 -6339085#8.28 -6339085#8.38 -6339085#8.98 -6339085#8.116 -6339085#7 -6339085#7.29 -6339085#7.47 -6339085#7.68 -6339085#7.87 -6339085#7.110 -6339085#6 -6339085#5 -6339085#5.13 -6339085#5.24 -6339085#5.39 6338567#11 6338567#12 30156401#0 -6333513#3 -6333513#3.137 -11043363#3 -11043363#3.7 -11043363#2 -11043363#1 6361146#0 6361146#0.52 6361146#0.64 6361146#0.89 6361146#0.103 6361146#0.116 6361146#0.128 6361146#0.148 6361146#0.201 6361146#0.214 6361146#0.230 6361146#0.246 6361146#0.259 6361146#0.276 -6361141 -6361141.7 194872395#4 194872395#4.5 194872395#4.9 194872395#4.12 194872395#4.17 194872395#4.22 194872395#4.29 194872395#4.115 194872395#4.139 194872395#4.158 194872395#4.166 194872395#4.175 194872395#4.193 194872395#4.217 194872395#4.233 7857575#0 7857575#0.10 7857575#0.24 7857575#0.39 7857575#0.57 7857575#0.75 7857575#0.88 7857575#0.126 7857575#0.144 7857575#0.146 7857575#0.162 7857575#0.184 7857575#0.212 7857575#0.218 7857575#0.224 7857575#0.229 7857575#0.241 7857575#0.275 7857575#0.303 7857575#0.315 7857575#0.324 7857575#0.326 7857575#0.339 7857575#0.350 7857575#0.357 7857575#0.360 7857575#0.410 7857575#1 7857575#1.42 7857575#1.66 7857575#1.85"/>
</vehicle>
<vehicle id = "veh3" type= "veh_passenger" depart="3605" >
<route edges =" 797309093 797309091#0 797309091#0.10 797309091#1 797309091#1.7 797309091#2 797309091#2.10 797309091#2.15 797309091#3 377635148 377635148.3 377635148.5 -437142992 -437142992.6 -6329160 -6329160.124 -6329160.133 785854260#3 785854260#3.11 785854260#3.30 785854260#4 785854260#4.14 785854260#4.73 785854260#5 785854260#6 785854260#6.20 785854260#6.77 785854260#7 785854260#8 785854260#8.8 785854260#8.45 -164659487 -164659487.11 -164659487.36 -164659487.49 -164659487.62 -164659487.77 -164659487.195 -164659487.212 -164659487.230 -164659487.246 164659503#2 164659503#2.0 164659503#2.1 164659503#2.2 164659503#2.3 164659503#2.4 164659503#2.5 164659503#2.6 164659503#2.7 164659503#2.8 164659503#2.9 164659503#2.10 164659503#2.11 -37963097#4 -37963097#4.3 -37963097#3 -37963097#3.82 -201989358#5 -201989358#5.8 -201989358#5.28 -201989358#5.97 -201989358#4 -201989358#4.8 -201989358#4.92 -201989358#4.97 25340020 25340020.6 25340020.17 24620689#0 24620689#0.6 24620689#1 24620689#1.9 -201989358#2 -201989358#2.18 -201989358#1 -201989358#1.6 -201989358#1.82 -201989358#0 -195430724#15 -195430724#14 -195430724#14.20 -195430724#13 -195430724#13.78 10585275#1 10585275#1.9 10585275#2 -6357225 -6357225.7 -6332541#0 -6332541#0.83 -164659478#5 -164659478#5.7 -164659478#4 -6362542#1 -6362542#1.7 -6362542#0 -6362542#0.104 168627934#0 168627934#0.97 -6360234#5 -6360234#5.7 -6360234#5.16 -6360234#4 -6360234#3 -6360234#2 -6360234#1 -6360234#0 -6360234#0.31 416106321#3 416106320#0 416106320#1 -698994081#5 -698994081#4 -698994081#3 -698994081#2 -698994081#1 -698994081#0 6333764#0 6333764#1 6333764#1.11 6333764#2 6333764#3 6333764#4 6333764#5 6333764#6 6333764#6.55 -6345181#7 -6345181#7.7 -6345181#7.92 -541335494#3 -541335494#3.6 -541335494#3.15 -541335494#2 -541335494#1 -541335494#0 -698994093#10 -698994093#9 -698994093#8 -698994093#8.7 -698994093#7 -698994093#7.11 -698994093#6 -698994093#5 -698994093#5.50 196779223#4 196779223#4.7 196779223#4.89 196779223#5 541334900#4 541334900#5 541334900#6 698994092#3 698994092#4 698994092#4.84 6348015 6348015.7 761330890 761330889#0 761330889#1 761330889#2 761330889#3 761330889#3.83 761330889#4 517593873#2 517593873#2.29 517593873#3 415876778 196779219#0 196779219#1 196779219#2 196779219#3 30833030#0 30833030#1 30833030#1.19 196779231#0 196779231#0.12 196779231#1 196779231#1.17 21452694#0 21452694#0.5 21452694#0.7 21452694#0.9 21452694#0.14 21452694#0.21 21452694#0.27 21452694#0.101 21452694#1 21452694#1.9 21452694#1.14 21452694#1.27 21452694#2 415878130#0 415878130#1 415878131#0 415878131#1 682209186 196779232 196779232.9 415878126 415878126.6 415878137#0 415878137#1 22372598#1 22372598#2 22372598#3 -6391592#1 -6391592#1.7 -6391592#0 -6391592#0.14 781008559#0 781008559#1 781008559#2 781008559#3 202177316#0 202177316#1 202177316#2 415878127 415878127.3 415878136#0 415878136#1 -417694700#1 -417694700#0 -417694700#0.27 -21452801#14 -21452801#14.52 -21452801#14.110 -21452801#13 -21452801#13.45 -21452801#13.82 -21452801#13.88 -24314605#15 -24314605#15.6 -24314605#15.8 -164658213#7 -164658213#6 -164658213#6.156 -164658213#5 -164658213#5.7 -164658213#4 -164658213#4.36 -32618074#3 -32618074#2 -32618074#1 -32618074#0 415884014#0 415884014#1 574404431 32618073 32618073.10 32618073.17 906507782 22277730#0 22277730#1 906507783#0 906507783#0.5 906507783#1 7773738#0 7773738#1 7773738#1.2 7773738#2 7773738#2.13 7773738#2.25 7773738#3 166510702#0 166510702#1 166510702#1.13 166510702#2 166510702#2.1 415884025#0 415884025#0.17 415884025#1 287012521#0 287012521#1 287012521#1.1 287012521#1.16 287012521#2 287012521#2.4 287012521#2.16 28594451#0 28594451#0.12 28594451#0.25 28594451#1 28594451#1.81 28594451#2 32618070#0 32618070#1 32618070#1.89 22277729#2 22277729#3 36985596 36985597#0 36985597#1 36985597#2 36985597#2.46 36985597#2.74 -22278227#0 -22278231 -22278231.10 -22278231.38 -22278231.47 -22278231.54 22278230 22278230.10 22278230.43 -22278228 -22278228.7 -22278228.63 -22277719#8 -22277719#8.6 -22277719#8.91 6372698#2 6372698#2.6 6372698#2.149 6372698#3 6372698#3.9 36985598 36985599#0 36985599#1 36985599#1.5 36985599#1.10 36985599#2 36985599#2.19 36985599#2.31 36985599#2.45 36985599#2.53 36985599#2.66 36985599#3 193256683#0 193256683#1 193256683#1.83 -618189913#5 -618189913#5.7 -618189913#5.17 -618189913#5.34 -190380683#1 -190380683#1.11 -190380683#1.27 -190380683#1.44 -190380683#0 -190380683#0.19 -190380683#0.42 -190380685#1 -190380685#1.9 -190380685#1.20 -190380685#1.38 -190380685#1.61 -190380685#1.77 -190380685#1.84 -190380685#0 -190380685#0.11 -190380685#0.22 -190380685#0.34 -190380685#0.60 -190380689#3 -190380689#2 -190380689#1 -190380689#0 -6338634#1 -6338634#0 -6349469 -6349469.5 -6349469.34 190380691#0 190380691#0.6 190380691#0.95 190380691#1 22277719#6 22277719#6.92 -618189913#0 -618189913#0.6 -618189913#0.24 -618189913#0.90 -618189913#0.190 -618189913#0.204 -618189913#0.219 -618189913#0.231 -694455409#6 -694455409#6.8 -694455409#6.11 -694455409#6.20 -694455409#6.38 -694455409#5 -694455409#5.10 -694455409#5.23 -694455409#5.42 -694455409#5.118 6402116#0 6402116#0.7 6402116#0.10 6402116#0.16 6402116#0.20 6402116#0.54 6402116#0.162 6402116#0.179 6402116#0.194 6402116#0.209 6402116#0.228 6402116#0.245 6402116#0.264 6402116#0.286 6402116#0.307 6402116#0.326 6402116#0.377 6402116#0.411 6402116#0.433 6402116#1 6402116#1.46 6402116#1.57 6402116#1.69 6402116#1.82 6402116#1.97 6402116#1.112 6402116#1.123 6402116#1.135 6402116#1.161 6402116#1.185 6402116#2 6402116#3 6402116#3.18 6402116#3.33 6402116#3.42 6402116#3.53 6402116#3.68 6402116#3.75 6402116#3.94 6402116#4 6402116#5 6402116#5.14 6402116#5.25 6402116#5.32 6402116#5.50 6402116#5.66 6402116#5.85 6402116#6 6402116#6.11 6402116#6.20 6402116#6.33 6402116#6.43 6402116#6.52 6402116#6.63 6402116#6.79 6402116#7 6402116#7.47 6402116#7.61 6402116#7.73 6402116#8 6402116#8.12 6402116#8.23 6402116#8.37 6402116#8.51 6402116#8.85 6375836#4 6375836#4.22 6375836#4.57 6375836#4.73 6375836#4.90 6375836#5 6375836#5.30 6375836#5.38 6375836#5.46 6375836#5.53 6375836#5.81 6375836#5.93 6375836#5.106 6375836#5.131 6375836#5.148 6375836#5.164 6375836#5.175 6375836#6 6375836#6.3 6375836#6.7 6375836#6.14 6375836#6.27 6375836#6.34 6375836#6.41 6375836#6.52 6375836#6.64 6375836#6.86 6375836#6.96 6375836#6.105 6375836#7 6375836#7.8 6375836#7.16 6375836#7.24 6375836#7.49 6375836#7.56 6375836#8 6375836#8.6 6375836#8.13 6375836#8.21 6375836#8.27 6375836#8.34 6375836#8.41 6375836#8.59 6375836#8.69 6375836#8.75 6375836#8.80 -6407092#1 -6407092#1.8 -6407092#1.35 -6407092#1.61 -6407092#1.75 -6407092#1.83 -6407092#1.97 -6407092#0 -6407092#0.6 -6407092#0.70 -6407092#0.87 -6407092#0.98 -6407092#0.108 -6407092#0.122 -6407092#0.126 -6407092#0.136 -22374751#4 -22374751#4.3 -22374751#3 -22374751#3.10 -22374751#3.45 -22374751#3.54 -22374751#2 -22374751#2.10 -22374751#2.34 -22374751#2.50 -22374751#2.67 -22374751#2.91 -22374751#2.104 -22374751#2.130 -22374751#1 -22374751#1.7 -22374751#1.16 -22374751#1.24 -22374751#1.35 -22374751#1.44 -22374751#1.56 -22374751#1.83 -22374751#1.88 -22374751#1.93 -22374751#1.100 -22374751#0 -22374751#0.7 -22374751#0.17 -22374751#0.21 -22374751#0.46 -22374751#0.85 -22374751#0.99 -22374751#0.114 -22374751#0.120 -22374751#0.127 -6394300#2 -6394300#2.18 -6394300#2.23 -6394300#2.31 -6394300#2.44 6387635#0 6387635#0.6 6387635#0.22 6387635#0.44 6387635#0.91 6387635#0.101 6387635#0.113 6387635#0.125 6387635#0.157 6387635#0.167 6387635#0.177 6387635#1 6387635#1.5 6387635#2 6387635#2.27 6387635#2.40 -196602724 -196602724.18 -196602724.33 -196602724.86 -196602724.95 -699706143 -699706143.3 -699706143.6 -699706143.11 -699706143.22 -699706143.37 -699706143.49 -699706143.73 -699706143.84 -699706143.95 -699706143.104 -699706143.115 -699706143.125 -699706143.137 -699706143.155 -699706143.197 -699706143.200 -699706143.203 -745180002 -190579786#10 -190579786#10.5 -190579786#10.12 -190579786#10.25 -190579786#9 -190579786#9.9 -190579786#9.18 -190579786#9.29 -190579786#9.79 -190579786#9.88 -190579786#9.97 -190579786#9.105 -190579786#9.113 -190579786#8 -190579786#8.7 -190579786#8.23 -190579786#8.51 -190579786#8.78 -190579786#8.84 -196602722#2 -196602722#2.9 -196602722#2.20 -196602722#2.33 -196602722#2.63 -196602722#2.71 -196602722#2.75 -196602722#2.80 -196602722#2.88 -196602722#2.95 -196602722#2.134 -196602722#2.143 -196602722#2.149 -196602722#2.160 -196602722#1 -196602722#1.18 -196602722#1.31 -196602722#1.54 -196602722#1.70 -6397228#8 -6397228#8.7 -6397228#8.23 -6397228#8.45 -6397228#7 -6397228#7.16 -6397228#7.33 -6397228#7.43 -6397228#7.54 -6397228#7.64 -6397228#7.93 -6397228#7.103 -6397228#7.113 -6397228#7.120 -6397228#7.127 -6397228#7.140 -6397228#6 -6397228#5 -6397228#5.8 -6397228#5.21 -6397228#5.37 -6397228#5.72 -6397228#5.95 -6397228#3 -6397228#2 -6397228#2.8 -6397228#2.19 -6397228#2.43 -6397228#2.59 -6397228#2.85 -6397228#2.114 -6397228#2.132 -6397228#2.141 -6397228#2.151 -6397228#2.160 -6397228#2.171 -6397228#2.185 -6397228#2.201 -6397228#2.217 -6397228#2.232 -6397228#2.266 -6397228#2.290 -6397228#2.319 -6397228#2.332 -6397228#1 -6397228#0 -6397228#0.19 -6379658#3 -6379658#3.9 -6379658#3.35 -6379658#3.47 -6379658#3.61 -6379658#3.72 -6379658#3.81 -6379658#3.92 -6379658#3.105 -6379658#3.113 -6379658#2 -6379658#1 -6379658#1.28 -6379658#1.37 -6379658#1.49 -6379658#1.62 -6379658#1.75 -6379658#1.92 -6379658#0 -6379658#0.10 -6379658#0.18 -6379658#0.37 -6379658#0.49 -6379658#0.60 -6379658#0.72 -6379658#0.94 -6379658#0.106 -6379658#0.117 -6379658#0.138 -6379658#0.149 -6379658#0.163 -6379658#0.176 6375842#3 6375842#3.9 6375842#3.20 6375842#3.30 6375842#3.40 6375842#3.49 6375842#3.61 6375842#3.72 6375842#4 6375842#4.10 6375842#4.83 6375842#4.95 6375842#4.104 6375842#4.114 6375842#4.140 6375842#4.151 6375842#4.157 -6338076#11 -6338076#11.4 -6338076#11.7 -6338076#11.27 -6338076#11.38 -6338076#11.57 -6338076#11.81 -6338076#10 -6338076#10.12 -6338076#10.39 -6338076#9 -6338076#8 -6338076#8.23 -6338076#8.41 -6338076#8.82 -6338076#7 -6338076#6 -6338076#6.14 -6338076#6.32 -6338076#6.45 -6338076#6.110 -6338076#5 -6338076#5.11 -6338076#4 -6338076#4.4 -6338076#4.13 -6338076#4.60 -6338076#4.67 -6338076#4.75 -6338076#4.85 -6338076#4.120 -6338076#4.141 -6338076#4.156 -6338076#3 -6338076#3.16 -6338076#3.41 -6338076#3.65 -6338076#3.77 -6338076#2 -6338076#2.18 -6338076#2.33 -6338076#2.39 -6338076#2.50 -6338076#2.65 -6338076#2.79 -6338076#2.91 -6338076#2.103 -6338076#2.111 -6338076#2.121 -6338076#2.130 -6338076#2.138 -6338076#1 -6338076#1.9 -6338076#1.19 -6338076#1.29 -6338076#1.43 6331171#5 6331171#5.7 6331171#5.13 6331171#5.41 6331171#5.57 6331171#5.70 6331171#5.82 6331171#5.95 6331171#5.107 6331171#5.128 6331171#5.144 6331171#5.151 6331171#5.159 -6382510#2 -6382510#2.34 -6382510#2.45 -6382510#2.53 -6382510#2.61 -6382510#2.72 -6382510#2.81 -6382510#2.91 -6382510#2.106 -6382510#2.119 -6382510#2.132 -6382510#1 -6382510#1.19 -6382510#1.26 -6382510#1.36 -6382510#1.44 -6382510#1.51 -6382510#1.61 -6382510#1.72 -6382510#1.92 -6382510#1.105 -6382510#1.114 -6382510#0 -6382510#0.11 -6382510#0.20 -6382510#0.26 -6382510#0.33 -6382510#0.39 6339085#8 6339085#8.38 6339085#8.56 6339085#8.116 6339085#8.126 6339085#8.134 6339085#8.142 -6336093#0 -6336093#0.17 -6336093#0.102 -6336093#0.112 -6336093#0.127 -190579762#10 -190579762#10.15 -190579762#10.28 -190579762#10.45 -190579762#9 -190579762#9.17 -190579762#9.29 -190579762#9.42 -190579762#9.56 -190579762#9.71 -190579762#9.81 6338567#8 6338567#8.11 6338567#9 6338567#10 -6339085#4 -6339085#4.58 -6339085#4.92 -6339085#4.103 -6339085#3 -6339085#3.11 -6339085#3.19 -6339085#3.40 -6339085#3.47 -6339085#3.56 -6339085#3.68 -6339085#3.81 -6339085#3.95 -6339085#3.107 -6339085#3.120 -6339085#2 -6339085#2.14 -6339085#2.26 -6339085#2.37 -6339085#2.49 -6339085#2.63 -6339085#2.115 -6339085#2.125 -6339085#2.140 -6339085#1 -6339085#0 -6339085#0.12 -6339085#0.27 -6339085#0.45 -6339085#0.77 -6339085#0.87 -6339085#0.98 -6339085#0.119 -6339085#0.129 -190579779#0 -190579779#0.109 -190579779#0.117 6333513#0 6333513#0.10 6333513#0.40 6333513#0.51 6333513#0.62 6333513#0.73 6407689#0 6407689#1 6407689#1.22 6407689#1.35 6407689#1.53 6407689#1.68 6407689#1.82 -6352134#2 -6352134#2.15 -6352134#2.29 -6352134#2.47 -6352134#2.62 -6352134#2.110 -6352134#1 -6352134#0 -6352134#0.20 -6352134#0.39 -6352134#0.53 -6352134#0.63 -6352134#0.79 -11043364#1 -11043364#0 -11043364#0.73 -11043364#0.81 -7857575#1 -7857575#1.27 -7857575#1.57 -7857575#1.75 -7857575#1.83 -7857575#1.99 -7857575#1.115 -7857575#1.152 -7857575#1.166 -7857575#1.179 -7857575#1.219 -7857575#1.229 -7857575#1.268 -7857575#1.290 -7857575#1.315 -7857575#1.332 -7857575#1.343 -7857575#1.361 -7857575#1.378 -7857575#1.390 -7857575#1.402 -7857575#1.416 -7857575#1.443 -7857575#1.452 -7857575#1.462"/>
</vehicle>
<vehicle id = "veh4" type= "veh_passenger" depart="7210" >
<route edges =" -316633577#1 -316633577#0 -797309094#1 -797309094#0 -797309094#0.6 -797309094#0.12 -797309095 -165864174#3 -165864174#2 -165864174#1 -34361024#1 -34361024#0 -34361024#0.80 -188703042#5 -188703042#4 -188703042#4.59 -188703042#3 -188703042#3.6 -188703042#3.24 -188703042#2 -188703042#1 -188703042#1.59 -188703042#1.74 -188703042#0 -188703042#0.9 -188703042#0.21 -6329505#1 -6329505#1.9 -6329505#1.18 -6329505#1.26 -6329505#1.79 -6329505#1.88 -6329505#1.97 -6329505#1.104 -6329505#0 -201989352#2 -201989352#2.8 -201989352#1 -201989352#1.9 -201989352#1.29 -201989352#0 -34361041#1 -34361041#0 -34361041#0.92 -528122494 -528122494.9 -6360234#7 164659478#5 164659478#5.101 -195430724#9 -195430724#8 6347525#0 6347525#0.6 6347525#0.198 -24620185#1 -24620185#1.6 -24620185#1.74 6318448#1 6318448#1.7 6318448#1.198 -195430724#6 -195430724#6.35 -195430724#5 -195430724#5.10 -195430724#5.24 -195430724#4 -195430724#3 -195430724#3.5 -195430724#3.137 -164659473#12 -164659473#12.8 6360234#4 6360234#5 6360234#5.24 6360234#5.33 -168627934#0 -168627934#0.7 -34811472#12 -34811472#12.8 -34811472#11 -34811472#10 -34811472#9 -34811472#9.6 -34811472#9.49 -34811472#8 -34811472#7 -34811472#6 -202317716#4 -202317716#3 -202317716#3.20 -202317716#3.88 -164659481#5 -164659481#5.12 -164659481#5.14 -164659481#4 -25316538#6 -25316538#6.7 -25316538#6.93 -34811472#3 -34811472#3.7 -34811472#3.66 -34811472#3.122 -34811472#3.194 -34811472#2 -34811472#2.8 -34811472#2.70 -34811472#2.135 -34811472#2.192 -24024251#2 -24024251#2.7 -910274653#0 -930646447 201989375#0 201989375#1 930646453#0 930646453#0.20 930646453#1 930646453#2 930646453#2.11 930646453#2.12 415876806#0 415876806#1 -910274659 -172616533#5 -172616533#5.4 -172616533#5.9 -172616533#4 -172616533#3 -172616533#3.33 -172616533#2 -172616533#1 -172616533#0 -172616533#0.14 32456661#4 32456661#4.8 32456661#4.92 32456661#5 6332538#7 6332538#7.7 6332538#7.11 6332538#8 6332538#8.10 6332538#8.20 6332538#8.28 6332538#9 6332538#9.23 6332538#10 165864142#0 165864142#1 165864142#2 165864142#3 165864142#4 165864142#5 165864142#5.33 165864142#6 -25968331#2 -25968331#1 -25968331#0 -32456661#9 -32456661#9.7 -32456661#9.91 -25968351#5 -25968351#5.187 -25968351#5.190 -201989365#10 -201989365#10.8 -201989365#10.77 -201989365#10.92 -201989365#9 -201989365#9.8 -201989365#9.22 -201989365#9.93 -6384487#12 -6384487#12.10 -6384487#12.12 -6384487#12.149 26379345#12 26379345#12.7 -6332538#4 -6332538#4.7 -6332538#4.193 25968337#13 25968337#13.7 25968337#14 25968337#15 25968337#15.7 25968337#15.104 25968349#3 25968349#4 25968349#4.5 168627951#0 168627951#0.7 168627951#0.65 168627951#1 168627951#1.47 168627951#2 168627951#2.19 168627951#3 168627951#4 168627951#5 201989365#13 201989365#14 416112025#0 416112025#0.14 416112025#0.30 416112025#1 417696931#0 417696931#1 417696931#1.1 417696931#1.37 417696914 25315667#0 25315667#1 25315667#1.70 25315667#2 -780990149#1 -780990149#1.7 -6350384#1 -6350384#1.188 -201989350#7 -201989350#7.9 -201989350#7.85 -201989350#6 -201989350#6.7 -201989350#6.24 -201989350#6.62 -201989350#5 6343678#3 6343678#4 6343678#5 6343678#5.7 6343678#5.40 6343678#5.92 164659491#3 164659491#3.1 164659491#3.3 164659491#3.4 164659491#3.6 164659491#4 164659491#0 164659491#0.1 164659491#0.2 164659491#0.4 164659470 164659470.4 164659470.53 164659470.87 164659488#3 164659488#3.1 164659488#3.3 164659488#3.4 164659488#3.6 -164659485#5 -164659485#5.3 -164659485#5.5 -164659485#5.59 -164659485#4 -164659485#3 -164659485#2 -164659485#1 -164659485#1.7 -164659485#0 -164659485#0.43 164659508#2 164659508#2.1 164659508#2.3 164659508#2.4 164659508#2.6 -164659434 -164659434.3 -164659434.86 164659494#1 164659494#1.1 164659494#1.2 164659494#1.4 164659494#1.5 164659494#2 164659494#2.1 164659494#2.3 164659494#2.4 164659494#2.6 -164659433 -164659433.3 -164659433.86 164659492#1 164659492#1.1 164659492#1.3 164659492#1.4 164659492#1.6 164659492#2 164659492#2.1 164659492#2.3 164659492#2.4 164659492#2.6 -25968348#2 -25968348#2.4 -25968348#2.9 -25968348#2.87 -201989350#1 -201989350#1.8 -201989350#1.22 -201989350#1.149 -201989350#1.165 -201989350#0 415883933#0 415883933#1 415883933#2 415883933#3 415883918 415883918.26 6347639#9 6347639#9.7 6347639#9.9 6347639#9.66 6347639#10 6347639#11 6347639#11.17 6347639#11.65 25968353#1 25968353#1.0 25968353#1.1 25968353#1.2 25968353#1.3 25968353#1.4 25968353#1.5 25968353#2 25968353#2.1 25968353#2.2 25968353#2.3 25968353#2.4 25968353#2.5 25968353#2.6 25968353#3 25968353#3.1 25968353#3.2 25968353#3.3 25968353#3.4 -25968346#2 -25968346#2.3 -25968346#2.8 -25968346#1 -25968346#0 -25968346#0.40 25968357#2 25968357#2.1 25968357#2.3 25968357#2.4 25968357#2.6 25968357#3 25968357#3.1 25968357#3.3 25968357#3.4 25968357#3.6 -25968345#3 -25968345#3.3 -25968345#3.87 -25968345#2 -25968345#2.7 -25968345#2.93 -25968345#1 -25968345#1.7 -25968345#0 -25968345#0.49 25968359#2 25968359#2.1 25968359#2.2 25968359#2.4 25968359#2.5 25968359#2.7 25968359#3 25968359#3.1 25968359#3.3 25968359#3.4 25968359#3.6 25968359#3.7 -25968343#1 -25968343#1.2 -25968343#1.86 -25968343#0 -25968343#0.7 -25968343#0.90 25968344#2 25968344#2.1 25968344#2.3 25968344#2.5 25968344#2.6 25968344#3 25968344#3.1 25968344#3.2 25968344#3.4 25968344#3.5 25968344#3.6 -190017518#1 -190017518#1.3 -190017518#1.86 -24028181#5 -24028181#5.8 -24028181#4 -24028181#4.7 -24028181#3 -26379345#7 -26379345#7.22 -26379345#7.36 -26379345#7.76 -26379345#7.91 -26379345#7.92 -26379345#6 -26379345#6.8 -26379345#5 -26379345#4 -26379345#4.94 423105092#1 423105092#1.91 541351345 541351345.8 27877609#0 27877609#1 423105088#0 423105088#1 541351341 541351341.163 -233699763#2 -233699763#2.7 -233699763#2.9 -233699763#2.71 -233699763#2.92 -233699763#1 -233699763#1.11 -233699763#0 6403126#0 6403126#1 6403126#2 6403126#3 6403126#4 6403126#5 6403126#6 415878172#0 415878172#1 415878172#2 415878172#3 415878139#0 415878139#0.13 415878139#1 -910274628#0 -682085478#1 -682085478#0 -6371446#1 -6371446#0 -6371446#0.82 -6371446#0.83 -617930717 -617930717.6 -679424764#2 195430727#0 195430727#1 195430727#1.7 195430727#1.37 -288515137#1 -288515137#0 -288515137#0.9 -288515137#0.19 -288515137#0.27 -757241413#1 -757241413#0 435607778#0 435607778#1 435607778#2 435607778#2.47 435607778#2.116 233700520#2 233700520#2.7 233700520#3 233700520#4 233700520#5 233700520#6 -6336803#7 -6336803#6 -6336803#5 -6336803#5.41 -6336803#4 -6336803#3 -6336803#2 -6336803#1 -6336803#0 -195595372#2 -195595372#1 -195595372#0 -415876803#2 -415876803#1 -415876803#0 415876796#0 415876796#1 415876796#2 296976973#0 296976973#0.2 296976973#0.6 296976973#1 296976973#1.128 296976973#2 -541350929#1 -541350929#0 -541350929#0.84 -164659430#3 -164659430#3.8 -164659430#3.92 -164659430#2 -164659430#2.8 6404288#4 6404288#4.7 6404288#4.188 6404288#4.193 6404288#4.196 -164659440#2 -164659440#2.3 -164659440#2.7 -164659440#2.12 25968337#5 25968337#5.8 25968337#5.193 25968337#5.194 -999534620#27 -999534620#27.6 -999534620#26 -999534620#26.51 -999534620#26.67 -999534620#26.74 -190017519 -190017519.7 25968341 25968341.18 25968341.56 -999534620#24 -999534620#24.3 -541349569 -541349569.193 -6356133#2 -6356133#2.8 -6356133#2.193 -6356133#1 -6356133#1.9 -6356133#0 -541349570 -819368215#0 -819368215#0.76 415870533#8 415870533#8.6 415870533#9 415870525#0 415870525#0.13 415870525#1 415870525#2 22370937#0 22370937#1 22370937#2 22370937#3 22370937#3.6 22370937#4 22370937#4.6 22370937#5 22370937#5.11 22370937#6 22370937#7 415870519#0 415870519#1 415870531#0 415870531#1 415870531#1.26 415870531#2 22370936#0 22370936#0.7 22370936#0.14 22370936#1 22370936#1.74 30832687#5 7841698#2 7841698#2.8 7841698#3 7841698#4 7841698#4.7 7841698#4.8 7841698#5 7841698#5.31 7841698#5.33 -363370643#3 -363370643#3.7 -363370643#2 -363370643#2.27 -22370936#5 -22370936#5.8 -22370936#5.9 -22370936#4 -22370936#4.87 -22370936#3 -24314606#0 -24314606#0.88 -24314606#0.93 -1014203284#3 -1014203284#3.2 -1014203284#3.5 -1014203284#3.191 -30832687#3 -30832687#3.8 -30832687#2 -30832687#2.91 -30832687#2.92 -30832687#1 -30832687#1.7 -30832687#1.9 -30832687#0 -30832687#0.21 -422929506 -7841699 -7841699.28 -7841699.73 -7841699.105 -24164436 -24164436.57 -24164436.115 -113629978#3 -113629978#3.7 -113629978#2 -113629978#2.67 6336821#1 6336821#2 6336821#3 6336821#3.34 6336821#4 22370939#0 22370939#1 22370939#1.51 22370939#1.78 22370939#2 415803770#0 415803770#1 -22372605#7 -22372605#6 -22372605#6.6 -22372605#6.15 -22372605#6.23 -22372605#6.183 -22372605#6.187 -22372605#5 -22372605#5.9 -22372605#5.15 -22372605#5.22 -22372605#5.34 -22372605#5.61 -22372605#4 -6399617#1 -6399617#1.29 -6399617#1.37 -6399617#1.46 -6399617#1.81 -6399617#1.92 -6399617#1.103 6392980 6392980.11 6335796#3 -6349061#3 -6349061#2 -6349061#1 -6349061#0 -6349061#0.66 -24297044#11 -24297044#11.15 -24297044#11.132 -6335796#1 -6335796#1.8 -6335796#1.90 -113629978#0 -113629978#0.7 -113629978#0.88 -113629978#0.107 -113629978#0.128 -113629978#0.146 24297035#3 -24297044#8 -24297044#7 -24297044#6 -24297044#6.9 -24297044#6.15 -24297044#6.21 -24297044#5 -24297044#4 -24297044#3 -24297044#2 6376847#0 6376847#0.6 6376847#1 6376847#2 6376847#2.5 6376847#3 6376847#3.7 6376847#3.9 6376847#4 6376847#4.98 -233698097#5 -233698097#5.7 -6334712#1 -6334712#1.7 -6334712#1.195 -422792869#3 -422792869#3.5 -422792869#2 -422792869#2.6 -422792869#2.66 -422792869#2.70 22372608#2 22372608#2.195 233698097#3 233698097#3.67 6330089#2 6330089#2.7 6330089#3 6330089#3.38 -6344903#2 -6344903#2.7 -6344903#1 -6344903#0 -6344903#0.20 867654315 203193436#0 203193436#0.38 203193436#1 203193436#1.7 203193436#2 415803787#0 415803787#1 415803787#1.8 415803787#2 22372607#0 22372607#1 22372607#1.7 22372607#1.16 25739391#0 25739391#1 25739391#1.19 22372606 22372606.6 22372606.13 22372606.20 -541341824 -541341824.8 -541341824.10 -541341824.25 -189171601#10 -189171601#10.70 195433882#2 195433882#2.7 195433882#3 195433882#4 195433882#4.7 541339973#4 541339973#4.6 -42639731#3 -42639731#2 -42639731#2.113 -42639731#2.192 35602546#4 35602546#4.6 35602546#5 35602546#5.6 35602546#6 35602546#6.19 35602546#6.26 35602546#6.29 35602546#7 35602546#8 35602546#8.6 35602546#9 35602546#9.6 35602546#9.40 35602546#9.44 35602546#9.50 24164443#0 24164443#0.8 24164443#0.67 24164443#1 24164443#1.69 24164443#1.124 24164443#2 24164443#2.10 24164443#2.28 24164443#2.137 24164443#2.139 22372609#1 22372609#1.1 22372609#1.3 22372609#1.5 22372609#2 22372609#2.2 22372609#2.4 22372609#2.6 22372609#2.9 22372609#3 22372609#3.1 22372609#3.3 22372609#3.5 22372608#0 22372608#0.3 22372608#0.6 22372608#0.12 22372608#0.174 22372608#0.175 188283694 188283694.28 188283693#0 188283693#0.8 -7844195 -7844195.9 -7844195.26 -7844195.46 -7844195.54 -7844195.332 -422792874 -422792874.12 -422792873 -422792873.11 -6359978 -6359978.24 -6359978.153 -6359978.194 -6359978.214 -6359978.234 188283693#2 188283693#3 188283693#4 -593529471 -593529471.7 -593529471.11 -593529471.16 -593529471.61 -221321162#1 -221321162#1.19 -221321162#1.248 -221321162#1.250 21485403#5 21485403#5.8 21485403#5.79 21485403#5.90 24297035#1 24297035#1.7 24297035#1.195 24297035#1.209 593529470#1 -6335787#1 -6335787#1.7 -6335787#1.16 -6335787#1.80 21485403#7 21485403#7.7 21485403#7.65 195595366#0 195595366#0.3 195595366#1 195595366#1.17 195595366#1.69 195595366#4 195595366#5 195595366#6 195595366#7 195595366#8 195595366#8.11 195595366#8.14 6344917#0 6344917#0.8 6344917#0.18 6344917#0.21 6344917#0.33 6344917#1 6344917#1.13 6344917#1.26 6344917#2 6344917#3 6344917#3.16 6344917#3.35 6344917#3.69 6344917#3.86 6344917#3.102 6344917#3.117 6344917#3.134 6344917#3.174 6344917#3.192 6344917#3.212 6344917#3.232 7913800#1 7913800#1.15 7913800#1.27 7913800#1.41 7913795#0 7913795#0.14 7913795#0.30 541338972#1 541338972#2 541338972#2.7 541338972#2.27 422947664 422947664.16 422947664.30 -422947667 -422947667.11 -774602460#1 -774602460#1.6 -774602460#1.9 -6346563 -6346563.8 6340642#1 6340642#1.23 6340642#1.55 6340642#2 6340642#2.42 -306210483#2 241532453#8 241532453#8.31 241532453#9 241532453#9.19 241532453#9.32 28842636#3 28842636#3.99 28842636#3.120 28842636#4 28842636#4.207 28842636#4.218 28842636#4.220 28842636#4.222 -422947669#1 -422947669#1.94 30832716#1 30832716#1.7 6380068#2 6380068#2.99 6380068#2.122 6380068#2.145 -30832948#9 -30832948#9.8 -30832948#9.16 -30832948#9.41 -30832948#8 -30832948#7 -30832948#6 -6339425 -6339425.28 -6339425.38 -6339425.48 -6339425.56 -7913794#1 -7913794#1.22 -7913794#1.43 -7913794#1.66 6349257 6349257.168 6349257.180 6349257.193 6349257.207 6349257.218 -30832948#3 6346104#0 6346104#0.104 6346104#1 6346104#1.6 168627943#2 6383959 6383959.96 -166409141#1 -166409141#1.5 -166409141#1.13 -166409141#1.111 6346111#1 6346111#2 -6336003#1 -6336003#1.9 -6336003#1.59 -6336003#1.73 6347574 195433868#4 195433868#4.108 6346111#4 6346111#4.7 6346111#4.9 6346111#5 6346111#5.92 6346111#5.93 6346111#5.96 24314605#0 24314605#0.4 24314605#0.8 -6333700#4 -6333700#4.7 -6333700#4.93 -6333700#3 -6333700#3.6 -6333700#3.89 -6333700#3.91 -6333700#2 -6333700#2.7 -6333700#2.9 -6333700#1 -6333700#1.92 -6333700#1.94 6398141#1 6398141#1.7 6398141#1.10 6398141#2 6398141#2.93 -24164451#3 -24164451#3.6 -24164451#3.8 -24164451#3.104 -24164451#2 -24164451#2.59 168627943#8 168627943#9 168627943#10 32866188#0 32866188#1 32866188#1.15 32866188#1.175 32866188#1.186 6398141#4 6398141#4.7 6398141#4.10 6398141#4.93 6398141#5 6398141#5.6 6398141#5.93 -22277720#3 -22277720#3.7 -22277720#3.194 -32456218#2 -32456218#2.7 -32456218#2.93 -6388365#1 -6388365#1.7 -6388365#1.193 -6402601#2 -6402601#2.6 -6402601#2.92 -6402601#1 -6402601#1.7 -24164451#0 24164453 24164453.10 24164453.23 32456680 32456680.2 -422947668 -422947668.11 -233686193 -233686193.8 -196750859#2 -196750859#1 -196750859#1.40 6378198#0 6378198#0.13 6378198#0.178 6378198#0.195 6378198#1 6378198#2 6378198#3 6378198#3.3 6378198#4 6378198#4.3 6408035 6408035.10 697544432 697544432.9 415884026#0 415884026#1 415884026#1.1 30832954#0 30832954#1 30832954#1.83 30832954#1.105 30832954#1.115 30832954#1.126 30832954#1.148 30832954#1.165 30832954#1.179 30832954#1.191 30832954#1.194 415884028 415884028.22 415884027 22278221 22278221.11 22278221.16 22278221.32 -22278227#3 -22278227#2 -22278227#1 541337642 541337642.7 187827704#0 187827704#0.39 187827704#0.54 187827704#0.63 187827704#0.83 187827704#0.95 187827704#0.110 187827704#0.122 187827704#0.137 187827704#0.150 187827704#1 187827704#1.7 187827704#1.56 187827704#1.70 187827704#1.82 187827704#1.93 187827704#1.174 187827704#1.180 187827704#1.185 187827704#1.187 187827704#2 187827704#2.7 187827704#2.15 187827704#2.33 187827704#2.51 187827704#2.70 187827704#2.88 187827704#2.107 187827704#2.123 187827704#2.139 187827704#2.159 187827704#2.236 187827704#2.255 187827704#2.270 187827704#2.279 6338567#1 6338567#1.107 6338567#2 6338567#3 6338567#3.80 11154779#9 11154779#9.12 11154779#9.34 11154779#9.73 11154779#9.89 11154779#9.122 11154779#9.137 11154779#9.139 -694455409#1 -694455409#1.21 -694455409#0 -694455409#0.15 -694455409#0.26 -694455409#0.37 -694455409#0.48 -694455409#0.58 -694455409#0.68 -694455409#0.104 -694455409#0.109 -694455409#0.119 6338567#5 6338567#5.8 -6341488#12 -6341488#12.15 -6341488#12.26 -6341488#12.42 -6341488#12.55 -6341488#12.74 6336095#1 6336095#1.21 6336095#1.30 6336095#1.42 6336095#1.55 6336095#1.84 6336095#2 6336095#2.8 6336095#2.26 6336095#2.155 -190579762#10 -190579762#10.15 -190579762#10.28 -190579762#10.45 -190579762#9 -190579762#9.17 -190579762#9.29 -190579762#9.42 -190579762#9.56 -190579762#9.71 -190579762#9.81 6338567#8 6338567#8.11 6338567#9 6338567#10 6339085#5 6339085#5.26 6339085#5.42 6339085#5.53 6335820 6335820.8 6335820.17 6335820.61 6335820.74 6335820.81 6335820.90 6335820.96 6335820.103 6335820.110 6335820.134 6335820.141 6331171#2 6331171#2.20 6331171#2.38 6331171#2.59 6335821 6335821.6 6335821.12 6335821.132 6335821.143 6335821.154 6335821.165 6335821.179 6335821.187 -190579811#2 -190579811#2.12 -190579811#2.16 -190579811#2.27 -190579811#2.39 -190579811#2.49 -190579811#2.50 30156401#0 -6333513#3 -6333513#3.137 -11043363#3 -11043363#3.7 -11043363#2 -11043363#1 -11043363#0 7857575#0 7857575#0.10 7857575#0.24 7857575#0.39 7857575#0.57 7857575#0.75 7857575#0.88 7857575#0.126 7857575#0.144 7857575#0.146 7857575#0.162 7857575#0.184 7857575#0.212 7857575#0.218 7857575#0.224 7857575#0.229 7857575#0.241 7857575#0.275 7857575#0.303 7857575#0.315 7857575#0.324 7857575#0.326 7857575#0.339 7857575#0.350 7857575#0.357 7857575#0.360 7857575#0.410 7857575#1 7857575#1.42 7857575#1.66 7857575#1.85"/>
</vehicle>
<vehicle id = "veh5" type= "veh_passenger" depart="7210" >
<route edges =" 797309093 797309091#0 797309091#0.10 797309091#1 797309091#1.7 797309091#2 797309091#2.10 797309091#2.15 797309091#3 377635148 377635148.3 377635148.5 377635149#0 377635149#0.19 377635149#0.28 377635149#0.40 377635149#0.54 377635149#1 377635149#1.77 6348380#2 6348380#2.74 6348380#2.87 6348380#2.97 6333080 6333080.6 6346195#1 6346195#1.16 6346195#1.26 6346195#1.36 6346195#1.46 6346195#1.55 6346195#1.62 6346195#1.72 6346195#1.80 6346195#1.89 6346195#1.98 6346195#1.109 6346195#1.118 6346195#1.136 6346195#1.152 437142998 184924125#0 184924125#1 184924125#1.14 184924125#1.70 184924125#1.93 184924125#1.122 184924125#1.145 184924125#1.162 184924125#1.179 184924125#1.196 184924125#1.208 437142999#0 437142999#1 -437143007#2 -437143007#1 -437143007#1.3 -437143007#1.47 -437143007#1.70 -437143007#0 -785854260#6 -785854260#6.9 -785854260#6.66 -20625899 -20625899.13 -20625899.430 6344478 6344478.10 -201989358#4 -201989358#4.8 -201989358#4.92 -201989358#4.97 -201989358#3 -201989358#2 -201989358#2.18 -201989358#1 -201989358#1.6 -201989358#1.82 -201989358#0 -195430724#15 -195430724#14 -195430724#14.20 -195430724#13 -195430724#13.78 -195430724#12 -195430724#12.8 -195430724#12.12 -195430724#11 -195430724#11.17 -164659478#5 -164659478#5.7 6360234#7 -164659477#8 -164659477#8.7 -164659477#7 -164659477#7.9 -164659477#7.96 6344564#0 6344564#0.8 6344564#0.11 6344564#0.19 6344564#0.30 6344564#0.41 6344564#1 6344564#2 6344564#2.19 6344564#2.21 -34815545#0 -34815545#0.7 -34815545#0.26 -416102056#1 -416102056#0 -6386342#1 -6386342#0 -6386342#0.48 -6386342#0.50 -164659477#4 -164659477#3 574299582#7 574299582#8 574299582#8.4 574299582#8.23 574299582#9 574299582#9.13 23226443#8 23226443#8.13 23226443#9 23226443#9.51 23226443#9.68 -6344566#2 -6344566#2.93 164659478#3 164659478#3.7 -6362542#1 -6362542#1.7 -6362542#0 -6362542#0.104 168627934#0 168627934#0.97 -6360234#5 -6360234#5.7 -6360234#5.16 -6360234#4 -164659473#11 -164659473#10 -164659473#10.7 -164659473#9 -164659473#8 -164659473#8.12 -164659473#7 -164659473#7.13 -164659473#6 -164659473#6.16 -164659473#5 -164659473#5.13 -164659473#4 -164659473#3 -164659473#3.63 -25316538#3 -25316538#3.7 -25316538#2 -25316538#1 24024250#4 24024250#4.7 24024250#5 24024250#5.66 24024250#6 742663483#0 742663483#1 742663483#1.35 742663483#1.56 742663483#1.77 742663483#1.84 742663483#2 415878804#0 415878804#1 415878803#0 415878803#1 541334900#0 541334900#1 541334900#2 541334900#3 541334900#4 541334900#5 541334900#6 541334900#7 541334900#8 -6371277 -6371277.7 -6371277.92 27877606#6 27877606#7 27877606#7.53 6348015 6348015.7 761330890 761330889#0 761330889#1 761330889#2 761330889#3 761330889#3.83 761330889#4 517593873#2 517593873#2.29 517593873#3 415876778 22278225#0 22278225#0.24 22278225#1 22278225#1.6 22278225#1.16 22278225#1.26 196779231#0 196779231#0.12 196779231#1 196779231#1.17 21452694#0 21452694#0.5 21452694#0.7 21452694#0.9 21452694#0.14 21452694#0.21 21452694#0.27 21452694#0.101 21452694#1 21452694#1.9 21452694#1.14 21452694#1.27 21452694#2 415878130#0 415878130#1 415878131#0 415878131#1 682209186 196779232 196779232.9 415878126 415878126.6 415878137#0 415878137#1 194859188#0 194859188#1 194859188#1.24 415878134#0 415878134#1 202177316#0 202177316#1 202177316#2 415878127 415878127.3 415878136#0 415878136#1 415876789 195433872 958717203 903957347 903957347.10 903957346#0 903957346#0.5 903957346#1 903957346#1.14 415876791 415876791.6 415876791.11 415876791.19 415876791.38 6365504#0 6365504#0.12 6365504#0.17 6365504#0.22 6365504#1 6365504#1.47 6365504#2 -23089174 23089172#0 23089172#0.2 23089172#0.23 23089172#0.47 23089172#0.53 23089172#1 23089172#1.5 23089172#2 23089172#2.5 23089172#2.12 23089172#2.16 23089172#3 23089172#4 23089172#5 23089172#5.27 6400775#31 6400775#31.7 6400775#32 6400775#32.41 6400775#33 184876631#0 184876631#1 184876631#2 184876631#3 184876631#4 184876631#5 184876631#6 184876631#7 184876631#7.5 -227756442#2 -227756442#2.6 -227756442#1 -227756442#1.24 -227756442#0 -227756442#0.6 184891171 184891171.8 184891171.14 -184891177 -184891166 -22273567#2 -22273567#2.26 -6365504#8 -6365504#8.5 -6365504#7 -6365504#6 -6365504#6.53 -6400775#27 -6400775#27.6 -6400775#26 -6400775#26.2 -6400775#26.21 -6400775#25 -6400775#25.7 -6400775#25.85 -6400775#25.87 -6341088#1 -6341088#1.6 -6341088#1.171 -6341088#0 -6341088#0.7 -6341088#0.123 -7990899#1 -7990899#0 -7990899#0.77 -363370637#7 -363370637#7.92 -363370637#6 -363370637#6.7 -363370637#5 -363370637#4 -21452801#8 -21452801#7 -21452801#6 -21452801#5 -21452801#5.63 -21452801#5.66 -21452801#4 -32618074#6 -32618074#5 -32618074#4 -32618074#4.52 -164658213#3 -164658213#2 -164658213#1 -164658213#0 -164658213#0.113 164658212#0 164658212#0.7 164658212#1 193256683#0 193256683#1 193256683#1.83 22278233#0 22278233#0.7 22278233#1 -6400722#1 -6400722#0 190380683#0 190380683#0.12 190380683#0.36 190380683#1 190380683#1.14 190380683#1.31 190380683#1.46 -618189913#4 -618189913#4.5 -618189913#4.9 -618189913#4.25 -618189913#3 -618189913#2 -618189913#1 -618189913#1.76 -618189913#1.91 22277719#7 22277719#7.7 22277719#7.92 -6372698#1 -6372698#1.6 -6372698#1.163 -6372698#1.180 -6372698#1.188 -6372698#1.196 -6372698#1.218 -6372698#0 -6372698#0.10 -6372698#0.23 -6372698#0.36 -6372698#0.49 -6372698#0.65 -6372698#0.80 -6372698#0.94 -6372698#0.109 -6372698#0.117 574377108 574377108.28 574377108.72 574377108.85 574377108.86 -694455409#6 -694455409#6.8 -694455409#6.11 -694455409#6.20 -694455409#6.38 -694455409#5 -694455409#5.10 -694455409#5.23 -694455409#5.42 -694455409#5.118 -694455409#4 -694455409#4.29 -694455409#3 -694455409#3.4 -694455409#3.6 -694455409#3.10 -694455409#3.32 -694455409#3.62 -694455409#3.77 -694455409#3.89 6368567 6368567.8 6368567.16 6368567.22 6368567.89 6368567.99 6368567.108 6368567.118 6368567.132 6368567.141 6368567.149 6368567.159 6341488#15 6341488#15.6 6341488#15.17 6341488#15.68 6341488#15.84 6341488#15.97 6341488#15.111 6341488#15.123 6341488#15.136 6341488#15.150 6341488#15.162 6341488#15.174 6341488#15.185 6341488#15.198 6341488#15.211 6341488#15.224 6341488#15.237 -190579762#16 -190579762#16.8 -190579762#16.11 -190579762#16.26 -190579762#16.39 -190579762#16.53 -190579762#16.67 -190579762#16.88 -190579762#16.106 -190579762#16.127 -190579762#15 -190579762#14 -190579762#13 -190579762#13.2 -190579762#13.22 -190579762#12 -190579762#12.22 -190579762#11 -190579762#11.4 -190579762#11.17 -190579762#11.28 -190579762#11.40 -190579762#11.52 -190579762#11.98 -190579762#11.111 -190579762#11.126 -190579762#11.141 -190579762#11.146 -190579762#11.153 -190579762#11.157 -6336095#2 -6336095#2.10 -6336095#2.139 -6336095#2.157 6338567#7 6338567#7.90 -190579762#8 -190579762#8.10 -190579762#8.20 -190579762#8.40 -190579762#8.57 -190579762#8.78 -190579762#8.98 -190579762#8.115 -190579762#8.129 -190579762#8.144 -190579762#7 -190579762#7.8 -190579762#7.16 -190579762#7.33 -190579762#7.40 -190579762#7.81 -190579762#7.95 -190579762#7.107 -190579762#7.119 -190579762#7.132 -190579762#7.144 -190579762#7.173 -6369262#1 -6369262#1.8 -6369262#1.32 -6369262#1.48 -6369262#1.62 -6372213#1 -6372213#1.28 -6372213#1.41 -6372213#1.51 -6372213#1.58 -6372213#1.71 -6372213#1.118 -6372213#1.130 -6372213#0 -6372213#0.20 -6372213#0.50 -6372213#0.73 -6372213#0.97 -6372213#0.103 -6341488#10 -6341488#10.15 -6341488#10.27 -6341488#10.40 -6341488#10.58 -6341488#10.73 -6341488#10.85 -6341488#10.95 -6341488#10.107 -6341488#10.117 -6341488#9 -6341488#9.5 -6341488#9.13 -6341488#8 -6341488#7 -6341488#7.25 -6341488#7.36 -6341488#7.76 -6341488#7.99 -6341488#6 -6341488#5 -6341488#5.27 -6341488#5.44 -6341488#5.62 -6341488#5.81 -6341488#5.125 -6341488#5.146 -6341488#5.159 -6341488#5.173 -6341488#5.186 -6341488#5.210 -6341488#5.226 -6341488#4 -6341488#4.10 -6341488#4.17 -6341488#4.26 -6341488#3 -6341488#2 -6341488#1 -6341488#1.8 -6341488#1.15 -6341488#1.22 -6341488#1.29 -6341488#1.35 -6341488#1.41 -6341488#1.48 -6341488#1.56 -6341488#1.123 -6341488#1.134 -6341488#1.145 -6341488#0 -6341488#0.9 -6341488#0.19 -6341488#0.28 -6341488#0.39 -6341488#0.86 -6341488#0.94 190579820 190579820.7 190579803 190579803.140 190579803.149 190579803.157 190579803.166 190579803.175 190579817#0 190579817#0.11 190579817#1 190579817#1.5 190579817#1.14 190579817#1.25 190579817#1.37 190579817#1.55 190579817#1.68 6333513#0 6333513#0.10 6333513#0.40 6333513#0.51 6333513#0.62 6333513#0.73 6407689#0 -11043364#4 -11043364#3 -11043364#2 -11043364#1 -11043364#0 -11043364#0.73 -11043364#0.81 -7857575#1 -7857575#1.27 -7857575#1.57 -7857575#1.75 -7857575#1.83 -7857575#1.99 -7857575#1.115 -7857575#1.152 -7857575#1.166 -7857575#1.179 -7857575#1.219 -7857575#1.229 -7857575#1.268 -7857575#1.290 -7857575#1.315 -7857575#1.332 -7857575#1.343 -7857575#1.361 -7857575#1.378 -7857575#1.390 -7857575#1.402 -7857575#1.416 -7857575#1.443 -7857575#1.452 -7857575#1.462"/>
</vehicle>
<vehicle id = "veh6" type= "veh_passenger" depart="10815" >
<route edges =" 797309093 797309091#0 797309091#0.10 797309091#1 797309091#1.7 797309091#2 797309091#2.10 797309091#2.15 797309091#3 377635148 377635148.3 377635148.5 -437142992 -437142992.6 -6329160 -6329160.124 -6329160.133 785854260#3 785854260#3.11 785854260#3.30 785854260#4 785854260#4.14 785854260#4.73 785854260#5 -20625899 -20625899.13 -20625899.430 6344478 6344478.10 201989358#5 201989358#5.9 201989358#5.78 201989358#5.98 201989358#6 201989358#6.7 201989358#6.21 201989358#7 201989358#7.2 201989358#7.32 -481521358#3 -481521358#3.11 -481521358#2 -6360237 -6360237.240 -37963097#0 -25966411 -25966411.228 -25966411.234 25966412#2 25966412#2.1 25966412#2.3 25966412#2.4 25966412#2.6 25966410 25966410.2 25340073 25340073.6 -34361042 -34361042.8 -34361042.97 34361041#0 34361041#0.7 34361041#1 -195430724#15 -195430724#14 -195430724#14.20 -195430724#13 -195430724#13.78 10585275#1 10585275#1.9 10585275#2 -6357225 -6357225.7 -6332541#0 -6332541#0.83 -164659478#5 -164659478#5.7 6360234#7 -164659477#8 -164659477#8.7 -164659477#7 -164659477#7.9 -164659477#7.96 -164659477#6 -164659477#6.18 -164659477#6.133 -164659477#5 6386342#0 6386342#0.7 6386342#0.9 6386342#1 430147776#0 430147776#1 430147776#1.5 430147774 430147774.5 778470344 778470344.8 -655486441#4 -655486441#4.5 -655486441#3 -655486441#2 -655486441#1 -655486441#0 416105060#0 416105060#1 416105060#1.4 742663481 416105057#0 416105057#0.38 416105057#1 742663482#0 742663482#1 742663482#2 742663482#2.7 742663482#3 742663482#4 574299582#0 574299582#1 574299582#2 574299582#2.15 -6388344 -6388344.12 -164659449#0 -164659449#0.48 164659493#1 164659493#1.1 164659493#1.3 164659493#1.4 164659493#1.6 164659493#2 164659493#2.1 164659493#2.3 164659493#2.5 164659493#2.7 -164659450#1 -164659450#1.3 -164659450#1.87 -23226443#1 -23226443#1.8 -23226443#1.192 164659462#1 164659462#1.7 164659462#1.92 164659509#3 164659509#3.1 164659509#3.3 164659509#3.4 164659509#3.6 -25315987 -25315987.3 25315985 25315985.7 25315985.12 -819364512#6 6401499 25316479 25316479.6 202317700#3 202317700#3.60 25315896#0 25315896#0.27 -198549475#3 -198549475#3.167 421385008#5 421385008#5.7 421385008#6 417696932#0 417696932#0.10 417696932#1 -778470340#6 -778470340#5 -778470340#5.17 -778470340#4 -778470340#3 -778470340#2 -778470340#1 -778470340#0 -778470340#0.10 -778470340#0.19 -416102058 -416102058.7 -202317703#1 -202317703#1.15 -202317703#0 416111293#0 416111293#1 202317699#0 202317699#0.17 202317699#1 202317699#2 202317699#3 202317699#4 202317699#5 202317699#6 202317699#7 202317699#8 202317699#9 202317699#10 202317699#10.21 202317699#11 202317699#12 1000720853#0 1000720853#1 1000720853#1.19 1000720853#2 517593874#0 517593874#1 25315452#0 25315452#1 25315452#1.1 25315452#2 25315452#3 25315452#3.137 164659515#4 164659515#0 164659515#0.1 164659515#0.2 164659515#0.4 164659460 164659460.3 164659460.88 164659511#3 164659511#3.1 164659511#3.3 164659511#3.4 164659511#3.6 164659511#4 164659511#0 164659511#0.1 164659511#0.3 164659511#0.4 164659511#1 164659511#1.1 164659511#1.2 164659511#1.4 164659511#1.5 164659479 164659479.3 164659479.186 164659505#4 164659505#0 164659505#0.1 164659505#0.2 164659505#0.4 164659505#1 164659505#1.1 164659505#1.3 164659505#1.4 164659505#1.6 164659505#2 164659505#2.1 164659505#2.2 164659505#2.4 164659505#2.5 -164659446 -164659446.3 -164659446.87 164659489#1 164659489#1.1 164659489#1.3 164659489#1.4 164659489#1.6 164659481#0 164659481#0.3 164659481#1 164659481#2 164659481#3 164659481#4 164659481#5 164659481#5.43 164659481#5.44 -202317716#2 -202317716#1 -202317716#1.25 -202317716#1.51 -202317716#0 164659478#0 164659478#1 164659478#2 164659478#2.41 164659478#2.70 164659478#2.127 164659478#3 164659478#3.7 -6362542#1 -6362542#1.7 -6362542#0 -6362542#0.104 168627934#0 168627934#0.97 -6360234#5 -6360234#5.7 -6360234#5.16 -6360234#4 -164659473#11 -164659473#10 -164659473#10.7 -7783131#2 -7783131#1 -7783131#0 -7783131#0.55 196779228#3 196779228#4 196779228#5 196779228#6 196779228#6.35 43256415 43256415.22 -6345181#8 -6345181#8.4 -6345181#8.7 -6345181#8.93 541334899#0 541334899#0.7 541334899#1 541334899#2 541334899#3 541334899#4 541334899#5 541334900#0 541334900#1 541334900#2 541334900#3 541334900#4 541334900#5 541334900#6 541334900#7 541334900#8 -6371277 -6371277.7 -6371277.92 27877606#6 27877606#7 27877606#7.53 6348015 6348015.7 761330890 761330889#0 761330889#1 761330889#2 761330889#3 761330889#3.83 761330889#4 517593873#2 517593873#2.29 517593873#3 415876778 22278225#0 22278225#0.24 22278225#1 22278225#1.6 22278225#1.16 22278225#1.26 196779231#0 196779231#0.12 196779231#1 196779231#1.17 21452694#0 21452694#0.5 21452694#0.7 21452694#0.9 21452694#0.14 21452694#0.21 21452694#0.27 21452694#0.101 21452694#1 21452694#1.9 21452694#1.14 21452694#1.27 21452694#2 415878130#0 415878130#1 415878131#0 415878131#1 682209186 196779232 196779232.9 415878126 415878126.6 415878137#0 415878137#1 194859188#0 194859188#1 194859188#1.24 415878134#0 415878134#1 202177316#0 202177316#1 202177316#2 415878127 415878127.3 415878136#0 415878136#1 -415876790#1 -415876790#0 -756453993 -559526390 -559526390.35 -164658213#11 -164658213#11.10 -164658213#11.12 -164658213#10 -164658213#10.55 -164658213#9 -164658213#8 -164658213#7 -164658213#6 -164658213#6.156 -164658213#5 -164658213#5.7 -164658213#4 -164658213#4.36 32618074#4 32618074#4.7 32618074#5 32618074#6 32618074#7 32618074#8 32618074#8.82 32618074#8.84 22273546#1 22273546#1.1 22273546#1.2 22273546#1.4 22273546#1.5 22273546#2 22273546#2.1 22273546#2.2 22273546#2.4 22273546#2.5 22273546#3 22273546#3.1 22273546#3.3 22273546#3.4 22273546#3.6 -22278234 -22278234.3 -22278234.5 -22278234.190 -618189913#5 -618189913#5.7 -618189913#5.17 -618189913#5.34 -618189913#4 -618189913#4.5 -618189913#4.9 -618189913#4.25 -618189913#3 -618189913#2 -618189913#1 -618189913#1.76 -618189913#1.91 -618189913#0 -618189913#0.6 -618189913#0.24 -618189913#0.90 -618189913#0.190 -618189913#0.204 -618189913#0.219 -618189913#0.231 -694455409#6 -694455409#6.8 -694455409#6.11 -694455409#6.20 -694455409#6.38 -694455409#5 -694455409#5.10 -694455409#5.23 -694455409#5.42 -694455409#5.118 -694455409#4 -694455409#4.29 -694455409#3 -694455409#3.4 -694455409#3.6 -694455409#3.10 -694455409#3.32 -694455409#3.62 -694455409#3.77 -694455409#3.89 -694455409#1 -694455409#1.21 -694455409#0 -694455409#0.15 -694455409#0.26 -694455409#0.37 -694455409#0.48 -694455409#0.58 -694455409#0.68 -694455409#0.104 -694455409#0.109 -694455409#0.119 6338567#5 6338567#5.8 6338567#6 6338567#7 6338567#7.90 -190579762#8 -190579762#8.10 -190579762#8.20 -190579762#8.40 -190579762#8.57 -190579762#8.78 -190579762#8.98 -190579762#8.115 -190579762#8.129 -190579762#8.144 -190579762#7 -190579762#7.8 -190579762#7.16 -190579762#7.33 -190579762#7.40 -190579762#7.81 -190579762#7.95 -190579762#7.107 -190579762#7.119 -190579762#7.132 -190579762#7.144 -190579762#7.173 -190579762#6 -190579762#6.13 -190579762#6.17 -190579762#6.26 -190579762#5 -190579762#5.9 -190579762#5.19 -190579762#5.29 -190579762#5.41 -190579762#5.62 -190579762#5.74 -190579762#5.86 -190579762#4 -190579762#3 -190579762#3.10 -190579762#3.21 -190579762#3.33 -190579762#2 -190579762#2.16 -190579762#2.48 -190579762#2.68 -190579762#2.85 -190579762#2.102 -190579762#2.117 -190579762#2.139 -190579762#2.141 -6359553 -6359553.8 -6359553.34 -6359553.42 -6359553.54 -6359553.95 -6359553.106 -6359553.117 -6359553.126 -6359553.137 -6341488#3 -6341488#2 -6341488#1 -6341488#1.8 -6341488#1.15 -6341488#1.22 -6341488#1.29 -6341488#1.35 -6341488#1.41 -6341488#1.48 -6341488#1.56 -6341488#1.123 -6341488#1.134 -6341488#1.145 -6341488#0 -6341488#0.9 -6341488#0.19 -6341488#0.28 -6341488#0.39 -6341488#0.86 -6341488#0.94 190579820 190579820.7 190579803 190579803.140 190579803.149 190579803.157 190579803.166 190579803.175 190579817#0 190579817#0.11 190579817#1 190579817#1.5 190579817#1.14 190579817#1.25 190579817#1.37 190579817#1.55 190579817#1.68 6333513#0 6333513#0.10 6333513#0.40 6333513#0.51 6333513#0.62 6333513#0.73 6407689#0 -11043364#4 6344393 6344393.33 6344393.38 6344393.42 6344393.48 -11043364#2 -11043364#1 -11043364#0 -11043364#0.73 -11043364#0.81 -7857575#1 -7857575#1.27 -7857575#1.57 -7857575#1.75 -7857575#1.83 -7857575#1.99 -7857575#1.115 -7857575#1.152 -7857575#1.166 -7857575#1.179 -7857575#1.219 -7857575#1.229 -7857575#1.268 -7857575#1.290 -7857575#1.315 -7857575#1.332 -7857575#1.343 -7857575#1.361 -7857575#1.378 -7857575#1.390 -7857575#1.402 -7857575#1.416 -7857575#1.443 -7857575#1.452 -7857575#1.462"/>
</vehicle>
<vehicle id = "veh7" type= "veh_passenger" depart="10815" >
<route edges =" -316633577#1 -316633577#0 -797309094#1 -797309094#0 -797309094#0.6 -797309094#0.12 -797309095 -165864174#3 -165864174#2 -165864174#1 -34361024#1 -34361024#0 -34361024#0.80 -188703042#5 -188703042#4 -188703042#4.59 -6402088#0 -6402088#0.9 -6402088#0.92 10585277#3 10585277#4 24620197 24620197.7 24620197.8 24620197.18 -6405162#1 -6405162#1.8 -6405162#1.26 -6405162#1.79 -6405162#0 -6405162#0.9 -6405162#0.41 -6405162#0.58 -6405162#0.69 -6405162#0.78 -6405162#0.84 -6405162#0.90 -6356253 -6356253.9 -6356253.18 -6356253.25 -6356253.32 -6356253.183 -6356253.191 -6356253.193 -201989360#2 -201989360#2.6 -201989360#2.14 -201989360#1 -201989360#1.34 -201989360#0 -201989360#0.20 -201989360#0.24 -656030857 -656030854 24620194 24620194.9 24620194.16 24620194.19 -698994088#2 -698994088#1 -698994088#1.18 -698994088#0 -698994088#0.76 -698994089#1 -698994089#1.4 -698994089#0 -21460654 -21460654.2 -21460654.3 -21460654.34 -21460654.121 -21460654.130 -21460654.140 -24620176#2 -24620176#2.10 -24620176#2.23 -24620176#2.35 -24620176#1 -24620176#0 21459815#0 21459815#1 -6339489#1 -6339489#1.6 -6339489#0 -6339489#0.112 -6339489#0.116 -6339489#0.117 -7781335 -7781335.7 -7781335.9 -7781335.148 -7781335.152 -6403136 -6403136.5 -6403136.98 -6403136.101 659099712#0 659099712#0.28 659099712#0.35 659099712#1 659099712#2 201989371#0 201989371#1 201989371#1.4 201989371#1.20 201989371#2 201989371#2.4 201989371#2.24 201989371#2.80 201989371#2.102 201989371#2.113 201989371#2.143 201989371#2.151 201989371#2.158 201989371#2.159 201989371#3 201989371#4 201989371#4.9 201989371#4.13 201989371#4.22 -6338294#1 -6338294#0 -6338294#0.13 -6338294#0.33 -6338294#0.79 -6338294#0.94 -6338294#0.100 -6377274#2 -6377274#2.14 -6377274#2.19 -6377274#2.20 -6377274#2.34 -6377274#2.36 -6377274#2.56 -6377274#2.83 -6377274#1 -6377274#1.17 -6377274#1.27 -6377274#0 -6377274#0.5 698805191#0 698805191#0.5 698805191#1 698805191#2 698805190 698805190.31 -517583963#3 -517583963#3.30 -517583963#2 -517583963#2.22 -517583963#1 -517583963#1.13 -517583963#1.28 -517583963#1.48 -517583963#0 -517583963#0.2 -517583963#0.16 -517583963#0.29 -195433870#1 -195433871#1 -195433871#0 -618326398#3 -618326398#2 -618326398#1 -618326398#1.45 -618326398#0 -618326398#0.5 -227756442#2 -227756442#2.6 -227756442#1 -227756442#1.24 -23089172#9 -23089172#9.6 -23089172#8 -23089172#7 -23089172#6 -23089172#6.22 -6400775#30 -6400775#30.7 -6400775#30.20 -6400775#29 -6400775#28 -6400775#28.41 -6400775#28.46 -6400775#27 -6400775#27.6 -6400775#26 -6400775#26.2 -6400775#26.21 37060496#0 37060496#0.7 37060496#1 37060496#2 188283054 188283054.9 -23873746#1 -23873746#0 -23873746#0.3 -23873746#0.43 -22374749 -22374749.8 -22374749.18 -22374749.27 -22374749.37 -22374749.48 -22374749.58 -430174919#1 -430174919#1.4 -430174919#1.15 -430174919#0 -288127321#7 -288127321#7.15 -288127321#6 -288127321#6.8 -288127321#5 -6400775#22 -6400775#21 -6400775#21.9 -6400775#21.26 -6400775#21.31 -6400775#21.41 -6400775#20 -6400775#20.16 -6400775#19 -6400775#19.6 -6400775#19.18 -6400775#19.19 -6400775#19.28 -6400775#19.34 -6400775#19.49 -6400775#19.58 -6400775#18 -6400775#18.1 -6400775#18.54 -6400775#17 -6400775#16 -6400775#15 -6400775#15.27 -6400775#15.60 -6400775#15.68 -6400775#15.72 -6400775#15.75 -6400775#14 -6400775#13 -6400775#13.4 -6400775#12 -6400775#11 -6400775#10 -6400775#10.91 -6400775#10.107 -6400775#9 -6400775#9.3 -6400775#8 -6400775#8.2 -6400775#7 -6400775#7.19 -6400775#7.34 -6400775#7.49 -6400775#7.64 -6400775#7.76 -6400775#6 -6400775#6.34 -6400775#5 -6400775#5.24 -6400775#5.53 -6400775#5.72 -6400775#5.79 -6400775#5.83 -6400775#5.99 -6400775#4 -6400775#3 -6400775#3.15 -6400775#3.35 -6400775#3.44 -6400775#3.53 -6400775#3.63 -6400775#3.76 -6400775#3.90 -6400775#3.101 -6400775#3.112 -6400775#3.121 -6400775#2 -6400775#2.9 -6400775#2.16 -6400775#2.23 -6400775#2.29 -6400775#1 -6400775#1.10 -6400775#1.28 -6400775#1.38 -6400775#1.49 -6400775#1.59 -6400775#0 -6400775#0.3 -6400775#0.8 24221419#0 24221419#0.12 24221419#0.22 24221419#0.35 24221419#0.47 24221419#1 24221419#1.10 24221419#2 24221419#2.4 24221419#2.15 24221419#2.26 24221419#2.38 24221419#2.49 24221419#3 24221419#4 24221419#4.8 24221419#4.15 24221419#4.24 24221419#4.32 24221419#4.41 24221419#4.49 24221419#4.57 24221419#4.69 24221419#4.82 24221419#4.94 24221419#4.100 24221419#4.109 24221419#4.119 24221419#4.127 24221419#5 24221419#5.9 24221419#5.16 24221419#5.22 24221419#5.29 -190579762#18 -190579762#18.4 -190579762#18.5 -190579762#18.14 -190579762#18.28 -190579762#18.50 -190579762#18.74 6402116#1 6402116#1.46 6402116#1.57 6402116#1.69 6402116#1.82 6402116#1.97 6402116#1.112 6402116#1.123 6402116#1.135 6402116#1.161 6402116#1.185 6331637#0 6331637#0.22 6331637#0.37 6331637#1 6331637#1.3 6341488#19 6348628 6348628.43 6348628.54 6348628.77 6348628.87 6348628.108 6348628.131 6348628.147 6348628.161 6348628.180 6348628.198 6348628.210 30734874#2 30734874#3 30734874#3.7 30734874#3.12 30734874#3.19 30734874#3.25 30734874#3.38 30734874#3.78 30734874#3.93 30734874#3.103 30734874#3.114 30734874#4 30734874#4.10 30734874#5 30734874#5.15 30734874#5.30 30734874#5.44 30734874#6 30734874#6.11 30734874#6.31 30734874#7 30734874#7.29 30734874#7.43 30734874#8 30734874#8.11 30734874#8.24 30734874#9 30734874#9.28 30734874#9.39 30734874#10 30734874#10.9 30734874#10.27 30734874#10.49 30734874#10.62 6375836#8 6375836#8.6 6375836#8.13 6375836#8.21 6375836#8.27 6375836#8.34 6375836#8.41 6375836#8.59 6375836#8.69 6375836#8.75 6375836#8.80 -6407092#1 -6407092#1.8 -6407092#1.35 -6407092#1.61 -6407092#1.75 -6407092#1.83 -6407092#1.97 6339933#2 6339933#2.9 6339933#2.25 6339933#2.42 -6379658#0 -6379658#0.10 -6379658#0.18 -6379658#0.37 -6379658#0.49 -6379658#0.60 -6379658#0.72 -6379658#0.94 -6379658#0.106 -6379658#0.117 -6379658#0.138 -6379658#0.149 -6379658#0.163 -6379658#0.176 6375842#3 6375842#3.9 6375842#3.20 6375842#3.30 6375842#3.40 6375842#3.49 6375842#3.61 6375842#3.72 6375842#4 6375842#4.10 6375842#4.83 6375842#4.95 6375842#4.104 6375842#4.114 6375842#4.140 6375842#4.151 6375842#4.157 -6338076#11 -6338076#11.4 -6338076#11.7 -6338076#11.27 -6338076#11.38 -6338076#11.57 -6338076#11.81 -6338076#10 -6338076#10.12 -6338076#10.39 -6338076#9 6329023#0 6329023#0.7 6329023#0.15 6329023#0.23 6329023#0.38 6329023#0.44 6329023#0.65 6329023#0.76 6329023#0.99 6329023#1 6329023#1.10 6329023#1.18 6329023#1.25 -190579799#0 -190579799#0.32 -190579799#0.52 -190579799#0.75 -190579799#0.92 -190579799#0.111 -616457859#1 -616457859#0 -616457859#0.4 -616457859#0.9 -190579823 -190579823.8 -190579823.22 -190579807 -190579807.8 -190579807.23 -190579807.35 -190579807.49 -190579807.61 -190579774#2 -190579774#2.7 -190579774#2.68 -190579774#2.88 -190579774#2.104 -190579774#1 -190579774#1.18 -190579774#0 -190579774#0.25 -190579811#7 -190579811#6 -190579811#6.1 -190579811#6.14 -190579811#6.31 -190579811#6.52 -190579811#5 -190579811#5.18 -190579811#5.37 -190579811#4 -190579811#4.39 -190579811#4.55 -190579811#4.73 -190579811#4.85 -190579811#3 -190579811#3.11 -190579811#3.21 -190579811#3.30 -190579811#3.43 -190579811#3.56 -190579811#3.66 -6335821 -6335821.7 -6335821.14 -6335821.29 -6335821.40 -6335821.51 -6335821.62 -6335821.182 -6335821.188 6331171#3 6331171#3.27 6331171#4 6331171#4.11 6331171#4.24 6331171#4.36 6331171#4.50 6331171#4.67 -6338076#0 -6338076#0.28 -6338076#0.35 -6338076#0.44 -6338076#0.51 -6338076#0.59 -6338076#0.66 -6338076#0.81 -6338076#0.90 -6338076#0.96 -6338076#0.120 -6338076#0.129 -6338076#0.138 -6382510#0 -6382510#0.11 -6382510#0.20 -6382510#0.26 -6382510#0.33 -6382510#0.39 -6339085#7 -6339085#7.29 -6339085#7.47 -6339085#7.68 -6339085#7.87 -6339085#7.110 -6339085#6 -6339085#5 -6339085#5.13 -6339085#5.24 -6339085#5.39 6338567#11 6338567#12 -190579811#1 -190579811#1.12 -190579811#1.20 -190579811#1.36 -190579811#1.50 -190579811#1.69 -190579811#1.82 -190579811#1.101 -190579811#1.120 -190579811#1.121 -11043363#4 -11043363#4.9 -11043363#4.16 -11043363#4.34 -11043363#4.41 -11043363#3 -11043363#3.7 -11043363#2 -11043363#1 -11043363#0 7857575#0 7857575#0.10 7857575#0.24 7857575#0.39 7857575#0.57 7857575#0.75 7857575#0.88 7857575#0.126 7857575#0.144 7857575#0.146 7857575#0.162 7857575#0.184 7857575#0.212 7857575#0.218 7857575#0.224 7857575#0.229 7857575#0.241 7857575#0.275 7857575#0.303 7857575#0.315 7857575#0.324 7857575#0.326 7857575#0.339 7857575#0.350 7857575#0.357 7857575#0.360 7857575#0.410 7857575#1 7857575#1.42 7857575#1.66 7857575#1.85"/>
</vehicle>
<vehicle id = "veh8" type= "veh_passenger" depart="14420" >
[...]
</vehicle>
<vehicle id = "veh12" type= "veh_passenger" depart="21630" >
<route edges =" 797309093 797309091#0 797309091#0.10 797309091#1 797309091#1.7 797309091#2 797309091#2.10 797309091#2.15 797309091#3 377635148 377635148.3 377635148.5 377635149#0 377635149#0.19 377635149#0.28 377635149#0.40 377635149#0.54 -437142996 -437142996.8 -437142997 -437142997.7 -437142997.19 -437142997.28 -437142995 -6336839 -6336839.8 -6336839.22 -6336839.37 -6336839.47 -6336839.56 -6336839.71 -6336843 -6336843.11 -6336843.20 -6336843.52 -785854260#4 -785854260#4.6 -785854260#4.65 -763290363 -763290363.11 -24620691#4 -24620691#3 -6347955 -6347955.7 -188703042#2 -188703042#1 -188703042#1.59 -188703042#1.74 6338310#2 6338310#2.9 6338310#3 6338310#3.92 -24620691#0 24620690 24620690.5 -24620688 24620689#0 24620689#0.6 24620689#1 24620689#1.9 -201989358#2 -201989358#2.18 -201989358#1 -201989358#1.6 -201989358#1.82 -201989358#0 -195430724#15 -195430724#14 -195430724#14.20 -195430724#13 -195430724#13.78 10585275#1 10585275#1.9 10585275#2 10585275#3 10585275#3.7 10585275#3.83 -7795936#1 -7795936#1.3 -7795936#0 -7795936#0.137 -6332541#1 -6332541#0 -6332541#0.83 -164659478#5 -164659478#5.7 -164659478#4 -6362542#1 -6362542#1.7 -6362542#0 -6362542#0.104 -34811472#12 -34811472#12.8 -34811472#11 -34811472#10 -34811472#9 -34811472#9.6 -34811472#9.49 -34811472#8 -34811472#7 -34811472#6 202317716#5 202317716#6 202317716#7 202317716#8 202317716#8.63 -164659438#2 -164659438#2.12 -164659438#1 -164659438#1.55 -164659438#0 -164659438#0.7 -164659438#0.194 164659513#2 164659513#2.1 164659513#2.3 164659513#2.4 164659513#2.6 164659513#3 164659513#3.1 164659513#3.3 164659513#3.5 164659513#3.6 164659513#4 164659513#0 164659513#0.1 164659513#0.2 164659513#0.4 164659447#0 164659447#0.3 164659447#0.87 -34811472#2 -34811472#2.8 -34811472#2.70 -34811472#2.135 -34811472#2.192 -24024251#2 -24024251#2.7 -910274653#0 -930646447 415878156#0 415878156#1 930646448 415878144#0 415878144#1 415878144#1.14 415878144#2 910274652#2 910274650#0 910274650#0.4 910274650#1 910274650#2 910274650#3 910274650#4 910274650#4.35 164659510#4 164659510#0 164659510#0.1 164659510#0.3 164659510#0.4 164659510#1 164659510#1.1 164659510#1.2 164659510#1.4 164659510#1.5 164659473#0 164659473#0.3 164659473#1 164659473#2 164659473#2.39 -25316538#3 -25316538#3.7 -25316538#2 -25316538#1 -25316538#0 21455622#0 21455622#0.7 21455622#1 196779227#0 196779227#0.7 196779227#1 196779227#2 196779227#3 21465899 21465899.14 21465899.28 21465899.38 21465899.49 987203677#0 987203677#0.10 987203677#0.14 987203677#0.21 987203677#0.33 987203677#1 742663483#0 742663483#1 742663483#1.35 742663483#1.56 742663483#1.77 742663483#1.84 742663483#2 415878804#0 415878804#1 415878803#0 415878803#1 541334900#0 541334900#1 541334900#2 541334900#3 541334900#4 541334900#5 541334900#6 698994092#3 698994092#4 698994092#4.84 6348015 6348015.7 761330890 761330889#0 761330889#1 761330889#2 761330889#3 761330889#3.83 761330889#4 517593873#2 517593873#2.29 517593873#3 415876778 196779219#0 196779219#1 196779219#2 196779219#3 30833030#0 30833030#1 30833030#1.19 196779231#0 196779231#0.12 196779231#1 196779231#1.17 21452694#0 21452694#0.5 21452694#0.7 21452694#0.9 21452694#0.14 21452694#0.21 21452694#0.27 21452694#0.101 21452694#1 21452694#1.9 21452694#1.14 21452694#1.27 21452694#2 415878130#0 415878130#1 415878131#0 415878131#1 682209186 196779232 196779232.9 415878126 415878126.6 415878137#0 415878137#1 194859188#0 194859188#1 194859188#1.24 415878134#0 415878134#1 202177316#0 202177316#1 202177316#2 415878127 415878127.3 415878136#0 415878136#1 -415876790#1 -415876790#0 -756453993 -559526390 -559526390.35 -202485362#1 -202485362#0 -202485362#0.8 -202485362#0.21 -684030184 -559724189#1 -559724189#1.9 -559724189#0 415884022#0 415884022#1 415884022#1.84 7841698#10 7841698#10.7 7841698#10.11 7841698#10.83 7841698#10.85 -164658213#10 -164658213#10.55 -164658213#9 -164658213#8 -164658213#7 -164658213#6 -164658213#6.156 363370637#2 363370637#3 363370637#4 363370637#5 363370637#6 363370637#6.48 363370637#7 363370637#7.6 -6400722#10 -6400722#10.8 -6400722#9 -6400722#8 -6400722#7 -6400722#6 -6400722#6.20 -6400722#6.23 -6400722#5 -6400722#5.7 -6400722#5.8 -6400722#4 -6400722#3 -6400722#2 -22278233#1 -22278233#0 -22278233#0.43 -193256683#1 -193256683#1.8 -193256683#0 -36985599#3 -36985599#2 -36985599#2.120 -36985599#2.132 -36985599#2.140 -36985599#2.155 -36985599#2.166 -36985599#1 -36985599#1.11 -36985599#1.17 -36985599#0 -36985598 -6372698#3 -6372698#3.4 -6372698#2 -6372698#2.9 -6372698#2.152 -22277719#7 -22277719#7.7 -22277719#7.92 -618189913#0 -618189913#0.6 -618189913#0.24 -618189913#0.90 -618189913#0.190 -618189913#0.204 -618189913#0.219 -618189913#0.231 -574377108 -574377108.11 -574377108.13 -574377108.26 -574377108.70 -541338171#1 -541338171#1.9 -541338171#1.51 -541338171#1.98 -541338171#1.143 -541338171#0 6327827#0 6327827#0.8 6327827#1 6327827#1.138 -541337829 -541337829.64 -541337829.72 -541337829.78 -541337829.80 30832954#1 30832954#1.83 30832954#1.105 30832954#1.115 30832954#1.126 30832954#1.148 30832954#1.165 30832954#1.179 30832954#1.191 30832954#1.194 -22277721 -22277721.9 -22277721.94 -22277721.101 -22277721.104 22277720#0 22277720#0.2 22277720#0.3 22277720#0.6 22277720#0.36 22277720#0.50 22277720#1 22277720#1.7 22277720#1.94 22277720#1.194 6402601#4 6402601#4.6 6402601#5 6402601#6 6402601#7 22278219#3 22278219#4 22278219#4.22 22278219#5 22278219#5.35 22278219#5.50 22278219#5.61 22278219#6 22278219#6.5 22277732#0 22277732#0.16 22277732#1 189026792#0 189026792#1 189026792#1.16 189026792#2 189026792#2.12 189026792#2.29 189026792#2.46 189026792#3 189026792#3.15 771752393 415884020 415884020.16 415884020.26 415884019 415884019.4 574404430#0 574404430#0.25 574404430#1 -574404433#1 -574404433#0 -574404432 -6398141#7 -6339837#4 -6339837#4.6 -6339837#3 -6339837#2 -6339837#1 -6339837#0 -6339837#0.38 -32456218#4 -32456218#3 -32456218#3.52 -32456218#2 -32456218#2.7 -32456218#2.93 6388365#2 6388365#2.7 6388365#2.193 6388365#2.195 6388365#3 6388365#3.7 6388365#3.9 6388365#4 6388365#4.136 6388365#4.138 6388365#5 6388365#5.6 6388365#5.8 6388365#5.193 6388365#5.195 24314605#6 24314605#6.91 23089173#2 23089173#2.7 23089173#2.10 23089173#2.43 23089173#2.49 23089173#2.61 23089173#2.72 23089173#2.93 -22370936#6 -22370936#6.8 -22370936#6.9 -22370936#6.191 -22370936#6.196 -363370643#1 -363370643#1.7 -363370643#1.77 -363370643#1.93 -24314605#4 -24314605#4.7 -24314605#4.8 -24164451#5 -24164451#5.8 -24164451#5.191 -24164451#5.193 195433868#8 195433868#8.6 195433868#8.87 195433868#9 -415884013#1 -415884013#0 -415884013#0.15 -32866188#3 -32866188#2 -32866188#2.142 -32866188#2.156 -6398141#3 -6398141#3.7 -6398141#3.10 -6398141#3.93 -6398141#2 -6398141#2.6 7840628#2 7840628#2.193 -195433868#6 -195433868#6.94 -6333700#2 -6333700#2.7 -6333700#2.9 -6333700#1 -6333700#1.92 -6333700#1.94 -6398141#0 -6398141#0.8 -6398141#0.10 -6398141#0.51 -6398141#0.78 -6398141#0.167 6346111#2 6346111#3 6346111#3.91 6346111#3.92 6346111#4 6346111#4.7 6346111#4.9 422792872#2 6333700#4 6333700#4.8 6333700#4.94 24314605#1 30909407#3 30909407#4 -7841698#3 -7841698#2 -7841698#2.192 -30832687#5 -30832687#4 -30832687#4.92 -1014203284#2 -1014203284#1 -1014203284#0 -1014203284#0.1 415870529#0 415870529#1 415870529#1.19 415870529#2 415803769#0 415803769#1 195433868#0 195433868#1 195433868#1.5 195433868#1.19 195433868#2 195433868#2.85 195433868#3 195433868#3.8 -6347574 -6336003#0 -6336003#0.64 -30832687#0 -30832687#0.21 -422929506 -422929504 -422929504.11 -422929505#1 -6339229#0 164658838#1 426767275 426767274 -24164436 -24164436.57 -24164436.115 -113629978#3 -113629978#3.7 -113629978#2 -113629978#2.67 -113629978#1 -113629978#1.7 -113629978#1.212 -113629978#0 -113629978#0.7 -113629978#0.88 -113629978#0.107 -113629978#0.128 -113629978#0.146 -24297035#2 -24297035#2.48 593529470#1 -6335787#1 -6335787#1.7 -6335787#1.16 -6335787#1.80 21485403#7 21485403#7.7 21485403#7.65 195595366#0 195595366#0.3 195595366#1 195595366#1.17 195595366#1.69 195595366#4 195595366#5 195595366#6 195595366#7 195595366#8 195595366#8.11 195595366#8.14 30832948#0 30832948#0.8 30832948#0.16 30832948#1 30832948#2 30832948#2.14 6346104#0 6346104#0.104 6346104#1 6346104#1.6 168627943#2 168627943#4 168627943#5 168627943#6 168627943#6.3 168627943#6.47 168627943#6.62 168627943#6.119 168627943#7 168627943#7.7 -24164451#1 -24164451#1.7 -24164451#1.193 6402601#1 6402601#1.92 -26723188#0 -26723188#0.7 -26723188#0.29 -32866333 -32866333.30 -32866333.52 -415884035#1 -415884035#0 -195595386#2 -195595386#2.4 -195595386#1 -195595386#1.5 -195595386#0 460683945#0 460683945#1 195595360#0 195595360#1 195595360#1.35 195595360#1.62 195595360#1.83 195595360#1.116 195595360#2 195595360#2.6 234074079 234074079.75 234074081 234074080#0 234074080#0.5 234074080#1 234074080#1.6 234074080#2 234074080#2.1 -697544432 -697544432.10 -6408035 -6408035.17 697544433#2 697544433#2.14 6351007#0 6351007#0.29 6351007#0.46 6351007#0.52 6351007#0.56 6351007#0.62 6351007#0.66 6351007#0.72 6351007#0.77 6351007#0.83 6351007#0.89 6351007#0.98 6351007#1 6351007#2 6351007#2.8 6386692#2 6386692#3 6386692#3.3 6386692#3.6 6386692#3.9 6386692#4 6386692#4.3 6386692#4.6 22017057 22017057.9 22017057.13 22017057.27 -6340364#1 -6340364#1.12 -6340364#1.14 -6340364#1.25 -6340364#1.37 -6340364#1.50 -6340364#1.69 -6340364#1.79 -6340364#1.89 -6340364#1.102 -6340364#1.126 -6340364#0 -187827704#3 -187827704#3.10 -187827704#3.63 -187827704#3.78 -187827704#3.91 -187827704#3.102 -187827704#3.163 -187827704#3.175 -187827704#3.182 6338567#1 6338567#1.107 -6372673#0 -6372673#0.7 -6372673#0.15 -6372673#0.28 -6372673#0.42 -6372673#0.56 -6372673#0.76 -6372673#0.85 -6372673#0.95 -6372673#0.109 -6372673#0.123 -436204253#0 -436204253#0.23 -436204258 -436204258.24 -436204258.31 -436204258.38 -436204258.45 -436204258.52 -436204258.59 -436204257#1 -436204257#1.24 -436204257#1.61 -6374520#5 -6374520#5.44 -6374520#5.63 -6374520#5.83 -6374520#5.96 -6374520#5.105 -6374520#5.115 -6374520#5.137 -6374520#5.239 -6374520#5.253 -6374520#5.266 -6374520#5.279 -6374520#5.291 -6374520#5.307 -6374520#5.326 -6374520#4 -6374520#4.17 -6374520#4.36 -6374520#3 -6374520#3.15 -6374520#3.41 -6374520#3.52 -6374520#3.65 -6374520#3.73 -6374520#3.85 -6374520#2 -6374520#2.14 -6374520#2.25 -6374520#1 -6374520#1.14 -6374520#0 -6374520#0.39 -694236847#2 -694236847#1 -694236847#1.12 -694236847#1.36 -694236847#1.51 -694236847#1.66 -694236847#1.99 -694236847#1.110 -694236847#1.124 -694236847#1.167 -694236847#1.210 -694236847#1.242 -694236847#0 -694236847#0.15 -694236847#0.34 -694236847#0.61 -694236847#0.95 -694236846#1 -694236846#0 11154776#10 11154776#10.5 11154776#10.25 11154776#10.62 11154779#0 11154779#0.82 11154779#0.108 11154779#0.137 11154779#0.162 11154779#0.189 11154779#0.208 11154779#1 11154779#2 6388487 6388487.8 6388487.19 6388487.28 6388487.38 6388487.49 6388487.71 6388487.82 6388487.90 6388487.103 6388487.114 6388487.127 6388487.139 6388487.150 6388487.249 6388487.253 6388487.259 6388487.262 6388487.266 6388487.308 6388487.320 6388487.327 193256686#9 193256686#9.9 193256686#10 193256686#10.5 193256686#10.16 193256686#10.29 193256686#10.46 193256686#11 193256686#12 193256686#12.27 6347601 6347601.7 6347601.56 6347601.70 6347601.82 6347601.93 6347601.104 6347601.114 6347601.124 6347601.132 6347601.143 6347601.156 6347601.167 6347601.176 6347601.187 6371698#1 6371698#1.51 6371698#1.66 -6341488#6 -6341488#5 -6341488#5.27 -6341488#5.44 -6341488#5.62 -6341488#5.81 -6341488#5.125 -6341488#5.146 -6341488#5.159 -6341488#5.173 -6341488#5.186 -6341488#5.210 -6341488#5.226 -6341488#4 -6341488#4.10 -6341488#4.17 -6341488#4.26 6359553 6359553.20 6359553.30 6359553.40 6359553.50 6359553.61 6359553.103 6359553.114 6359553.123 6359553.148 -190579762#1 -190579762#1.18 -190579762#1.34 -190579762#1.48 -190579762#1.61 -190579762#1.72 -190579762#0 -190579762#0.9 -190579762#0.20 -190579762#0.30 -190579762#0.41 -190579762#0.48 -190579762#0.50 -6400759 -6400759.10 -6400759.12 190579817#0 190579817#0.11 190579817#1 190579817#1.5 190579817#1.14 190579817#1.25 190579817#1.37 190579817#1.55 190579817#1.68 6333513#0 6333513#0.10 6333513#0.40 6333513#0.51 6333513#0.62 6333513#0.73 6407689#0 6407689#1 6407689#1.22 6407689#1.35 6407689#1.53 6407689#1.68 6407689#1.82 -6352134#2 -6352134#2.15 -6352134#2.29 -6352134#2.47 -6352134#2.62 -6352134#2.110 -6352134#1 -6352134#0 -6352134#0.20 -6352134#0.39 -6352134#0.53 -6352134#0.63 -6352134#0.79 -11043364#1 -11043364#0 -11043364#0.73 -11043364#0.81 -7857575#1 -7857575#1.27 -7857575#1.57 -7857575#1.75 -7857575#1.83 -7857575#1.99 -7857575#1.115 -7857575#1.152 -7857575#1.166 -7857575#1.179 -7857575#1.219 -7857575#1.229 -7857575#1.268 -7857575#1.290 -7857575#1.315 -7857575#1.332 -7857575#1.343 -7857575#1.361 -7857575#1.378 -7857575#1.390 -7857575#1.402 -7857575#1.416 -7857575#1.443 -7857575#1.452 -7857575#1.462"/>
</vehicle>
<vehicle id = "veh13" type= "veh_passenger" depart="21630" >
<route edges =" -316633577#1 -316633577#0 -6340080#2 -6340080#1 -6340080#0 -6340080#0.27 -201989373 -201989373.4 -201989373.9 -201989373.42 -201989355#2 -201989355#2.8 -201989355#2.38 -201989355#1 -201989355#0 -201989357 -201989357.7 -201989357.39 -201989357.50 -201989357.52 -6405162#1 -6405162#1.8 -6405162#1.26 -6405162#1.79 -6405162#0 -6405162#0.9 -6405162#0.41 -6405162#0.58 -6405162#0.69 -6405162#0.78 -6405162#0.84 -6405162#0.90 -6356253 -6356253.9 -6356253.18 -6356253.25 -6356253.32 -6356253.183 -6356253.191 -6356253.193 -201989360#2 -201989360#2.6 -201989360#2.14 -201989360#1 -201989360#1.34 -201989360#0 -201989360#0.20 -201989360#0.24 -656030857 -656030854 24620194 24620194.9 24620194.16 24620194.19 -698994088#2 -698994088#1 -698994088#1.18 -698994088#0 -698994088#0.76 -698994089#1 -698994089#1.4 -698994089#0 -21460654 -21460654.2 -21460654.3 -21460654.34 -21460654.121 -21460654.130 -21460654.140 -24620176#2 -24620176#2.10 -24620176#2.23 -24620176#2.35 -24620176#1 -24620176#0 24620192#0 24620192#1 24620192#1.7 24620192#1.15 24620192#1.23 24620192#1.38 24620192#1.60 24620192#1.80 24620178#0 24620178#0.5 24620178#0.25 24620178#1 24620178#1.2 24620178#1.30 24620178#1.44 24620178#1.47 360736209#0 360736209#0.2 360736209#0.4 360736209#0.7 360736209#0.9 360736209#0.12 7781341#0 7781341#0.10 7781341#0.12 7781341#1 7781341#2 698994086 698994086.56 -311941950#0 -311941950#0.132 -311941950#0.137 -311941950#0.141 24025453 24025453.6 24025453.30 5149920 5149920.10 5149920.62 659099711 659099711.8 60787285#0 60787285#0.15 60787285#0.27 60787285#0.39 60787285#1 60787285#1.10 60787285#1.24 60787285#1.41 659095426 675763067#0 675763067#1 675763067#1.39 675763067#1.80 675763067#1.103 675763068 675763068.21 675763068.43 675763068.69 675763068.145 675763068.171 7779009 7779009.11 7779009.17 7779009.25 675763066 675763066.9 675763066.19 -6377274#2 -6377274#2.14 -6377274#2.19 -6377274#2.20 -6377274#2.34 -6377274#2.36 -6377274#2.56 -6377274#2.83 -6377274#1 -6377274#1.17 -6377274#1.27 -6377274#0 -6377274#0.5 698805191#0 698805191#0.5 698805191#1 698805191#2 698805190 698805190.31 -517583963#3 -517583963#3.30 -517583963#2 -517583963#2.22 -517583963#1 -517583963#1.13 -517583963#1.28 -517583963#1.48 -517583963#0 -517583963#0.2 -517583963#0.16 -517583963#0.29 24054271 24054271.10 24054271.15 24054271.19 21468137 21468137.63 21468137.66 -430174913 -698994083 -698994083.20 -698994083.93 -23089172#13 -23089172#13.7 -23089172#12 -23089172#11 -23089172#10 -23089172#10.58 -23089172#9 -23089172#9.6 -23089172#8 -23089172#7 -23089172#6 -23089172#6.22 6400775#31 6400775#31.7 6400775#32 6400775#32.41 6400775#33 -22016936#2 -22016936#1 -22016936#1.13 -22016936#0 22016934#0 22016934#0.16 22016934#1 559724188 559724188.22 6365504#0 6365504#0.12 6365504#0.17 6365504#0.22 6365504#1 6365504#1.47 6365504#2 -6339579#6 -6339579#5 -6339579#5.3 -6339579#4 -6339579#3 -6339579#3.31 -22275208#0 -22275208#0.9 -22275208#0.117 -22275208#0.123 -22275208#0.126 -168627917 -7990899#2 -7990899#2.27 6341088#0 6341088#0.9 6341088#0.125 -6339579#0 -6339579#0.7 -6339579#0.8 -288127321#1 -6339575#4 -6339575#4.7 -6339575#3 -6339575#3.102 -6339575#3.107 -6339575#2 -6339575#2.7 -6339575#2.110 -6339575#2.116 -6339575#1 -6339575#1.10 -6339575#1.21 -6339575#1.33 -6339575#1.50 -6339575#1.56 -6339575#0 -6339575#0.7 -6339575#0.24 -6339575#0.34 -6339575#0.44 -6339575#0.53 -6339575#0.96 -6339575#0.102 -6339575#0.107 -6339575#0.112 -6339575#0.120 -6347531 -6347531.58 -6347531.76 -6347531.94 -6400722#0 190380683#0 190380683#0.12 190380683#0.36 190380683#1 190380683#1.14 190380683#1.31 190380683#1.46 -618189913#4 -618189913#4.5 -618189913#4.9 -618189913#4.25 -618189913#3 -618189913#2 6362159 -190380689#3 -190380689#2 -22277719#3 -22277719#2 -22277719#1 -22277719#1.48 -22277719#1.63 -22277719#0 -6400775#3 -6400775#3.15 -6400775#3.35 -6400775#3.44 -6400775#3.53 -6400775#3.63 -6400775#3.76 -6400775#3.90 -6400775#3.101 -6400775#3.112 -6400775#3.121 -6400775#2 -6400775#2.9 -6400775#2.16 -6400775#2.23 -6400775#2.29 -6400775#1 -6400775#1.10 -6400775#1.28 -6400775#1.38 -6400775#1.49 -6400775#1.59 -6400775#0 -6400775#0.3 -6400775#0.8 24221419#0 24221419#0.12 24221419#0.22 24221419#0.35 24221419#0.47 24221419#1 24221419#1.10 24221419#2 24221419#2.4 24221419#2.15 24221419#2.26 24221419#2.38 24221419#2.49 24221419#3 24221419#4 24221419#4.8 24221419#4.15 24221419#4.24 24221419#4.32 24221419#4.41 24221419#4.49 24221419#4.57 24221419#4.69 24221419#4.82 24221419#4.94 24221419#4.100 24221419#4.109 24221419#4.119 24221419#4.127 24221419#5 24221419#5.9 24221419#5.16 24221419#5.22 24221419#5.29 -190579762#18 -190579762#18.4 -190579762#18.5 -190579762#18.14 -190579762#18.28 -190579762#18.50 -190579762#18.74 -190579762#17 -190579762#17.47 -6341488#15 -6341488#15.10 -6341488#15.23 -6341488#15.36 -6341488#15.49 -6341488#15.61 -6341488#15.73 -6341488#15.84 -6341488#15.97 -6341488#15.111 -6341488#15.124 -6341488#15.136 -6341488#15.150 -6341488#15.163 -6341488#15.179 -6341488#15.229 -6341488#15.241 -6341488#14 -6341488#14.8 -6341488#14.20 -6341488#14.36 -6341488#14.51 -6341488#14.67 -6341488#14.105 -6341488#14.115 -6341488#14.127 -6341488#13 -6341488#13.6 -6341488#13.35 -6341488#13.61 -6341488#13.81 -6341488#13.101 -6341488#13.124 -6341488#13.176 6338567#6 6336095#2 6336095#2.8 6336095#2.26 6336095#2.155 -190579762#10 -190579762#10.15 -190579762#10.28 -190579762#10.45 -190579762#9 -190579762#9.17 -190579762#9.29 -190579762#9.42 -190579762#9.56 -190579762#9.71 -190579762#9.81 6338567#8 6338567#8.11 6338567#9 6338567#10 6338567#11 6338567#12 -190579811#1 -190579811#1.12 -190579811#1.20 -190579811#1.36 -190579811#1.50 -190579811#1.69 -190579811#1.82 -190579811#1.101 -190579811#1.120 -190579811#1.121 -11043363#4 -11043363#4.9 -11043363#4.16 -11043363#4.34 -11043363#4.41 -11043363#3 -11043363#3.7 -11043363#2 -11043363#1 -11043363#0 7857575#0 7857575#0.10 7857575#0.24 7857575#0.39 7857575#0.57 7857575#0.75 7857575#0.88 7857575#0.126 7857575#0.144 7857575#0.146 7857575#0.162 7857575#0.184 7857575#0.212 7857575#0.218 7857575#0.224 7857575#0.229 7857575#0.241 7857575#0.275 7857575#0.303 7857575#0.315 7857575#0.324 7857575#0.326 7857575#0.339 7857575#0.350 7857575#0.357 7857575#0.360 7857575#0.410 7857575#1 7857575#1.42 7857575#1.66 7857575#1.85"/>
</vehicle>
</routes>
