<?xml version="1.0" encoding="UTF-8"?>
<routes xmlns:xsi="http: // www.w3.org/2001/XMLSchema-instance" xsi:noNamespaceSchemaLocation="http: // sumo.dlr.de/xsd/routes_file.xsd">
<vType id="veh_passenger" vClass="passenger"/>

<vehicle id = "veh0" type= "veh_passenger" depart="0" >
<route edges =" -45342801#4 -45342801#3 -45342801#2 -45342801#1 -45342801#0 45342798#2 45342798#3 45342798#4 45342798#5 45342813#0 45342813#1 45342813#2 -45342814#1 44740902#11 44740902#12 44740902#13 44740902#14 44740902#14.81 44740902#14.94 -874839172#0 -44740943 -313316091#20 951438760#0 951438760#1 -44740929#4 -951438759 44740922#2 44740922#2.25 44740953#0 44740953#2 44740953#3 44740953#4 44740953#5 44740953#6 44740953#7 44740949#2 -44740919#1 -44740919#0 44740920#8 -313316091#0 -313316091#0.27 -313316091#0.72 -313316091#0.80 -971495601#9 -971495601#9.28 -971495601#8 -971495601#7 -971495601#6 -971495601#5 -971495601#3 -971495601#1 -971495601#0 -313316086 -44739144#26 -44739144#24 -44739144#22 -44739144#21 -44739144#20 -44739144#19 -44739144#19.14 -44739144#18 -877398366#21 -877398366#20 -877398366#19 -877398366#18 -877398366#17 -877398366#17.7 -877398366#16 -877398366#15 -877398366#15.29 -877398366#14 -877398366#14.72 -877398366#13 -671191680#14 -671191680#13 -671191680#11 -671191680#9 -671191680#8 -671191680#6 -896786326#1 -896786326#0 -896786328#0 -896786328#0.177 -951951638#10 -951951638#10.18 -951951638#9 -951951638#8 -951951638#7 -951951638#5 -951951638#4 -951951638#3 -951951638#2 -951946794#1 -951946794#0 951946792#1 896786337#8 896786337#8.8 -951887683 -951887684 -951887682#6 -951887682#5 -951887682#4 -951887682#3 951887692 -951887691#0 -951887682#0 -951887700#14 -951961240#3 -951961240#1 -951961245 951891772#0 -951891773 -951891771#0"/>
</vehicle>
<vehicle id = "veh1" type= "veh_passenger" depart="0" >
<route edges =" 45342801#5 45342801#5.32 902433317#3 902433317#4 902433317#6 902433317#7 902433317#8 902433317#8.29 951368593#1 972507120#2 45342812#0 45342812#1 45342811#2 45342811#2.66 45344273#23 45344273#23.11 45344273#24 -897252873#2 -897252873#1 -897252873#1.42 -897252873#0 -897252873#0.25 897252876#4 45344320#2 45344320#3 -45344331#4 45344327#1 903341090 -45344335#4 -950235690#1 -950235690#0 -950235690#0.14 700254525#11 700254524#0 700254523 -700254525#0 45344272#4 950233988#0 45344283#9 45344283#10 45344283#10.15 45344283#10.46 45344283#10.69 45344283#10.88 45344283#10.150 45344283#10.196 45344283#10.260 45344283#10.377 45344283#10.468 45344283#10.514 670655885 670655885.12 896892975 971495602#12 971495602#12.26 971495602#12.77 951442813 951442812#0 -896786335#50 -896786335#49 -896786335#48 -896786335#48.15 -896786335#47 -896786335#46 -896786335#44 -896786335#44.9 -896786335#44.71 -896786335#43 -896786335#42 -896786335#42.22 -896786335#41 -896786335#40 -896786335#39 -896786335#39.27 -896786335#37 -896786335#36 -896786335#34 -896786335#33 -896786335#32 -896786335#32.17 -896786335#31 -896786335#31.22 -896786335#30 -896786335#29 -896786335#29.17 -896786335#28 -896786335#27 -896786335#27.19 -896786335#26 -951995494#1 -951995491#2 -951995491#1 -951995491#0 -896786266#12 909024250#0 909024250#1 909024250#2 909024250#4 909024250#5 909024250#6 909024239#0 909024239#1 909024239#1.17 909024239#2 909024239#2.40 -951983585 -951975994 -896786324#1 -896786324#0 -896786324#0.19 -896786324#0.132 -896786324#0.177 951951639#0 951946803#0 951946795#1 951946795#2 951946795#3 951946795#4 951946795#6 951946795#7 951946795#9 951946795#10 951946795#11 951946795#11.34 951946795#11.40 951946795#11.45 896786337#10 896786337#10.21 -951887700#20 -951887700#19 -671756019#4 -951961235 951961234#1 -951878265#2 -951878265#1 -951878265#0 951878264#2 -951878263#3 -951878266#4 -951878266#4.37 -951878266#2 -951878266#1 -951878266#1.39 -951878266#1.47"/>
</vehicle>
<vehicle id = "veh2" type= "veh_passenger" depart="0" >
<route edges =" 951370989 951370989.40 951370989.47 951370989.53 951370989.56 951370989.62 951370989.64 951370989.67 -902433320#1 -902433320#0 902433321#2 45342799#21 45342809#0 45342809#1 45342809#2 45342809#3 45342809#4 45342809#5 45342809#6 45342809#7 45342809#8 44740885#10 -45342826#1 -45342826#0 45342825#1 45342825#2 45342828#0 45342828#1 45342828#1.100 -45344273#6 -45344273#6.40 -45344273#6.59 -951384598#3 -951384598#2 -951404491 -951404491.16 -951404491.28 -951404491.40 -951404491.51 -951384599#0 700249213#9 700249213#10 700249213#11 45342808#10 45342808#11 45342808#11.24 45342808#12 -897252871 -897252870 -45344310#2 -45344310#1 -45344310#0 -45344310#0.10 -45344310#0.18 -45344310#0.30 -45344310#0.41 -45344310#0.52 971495602#8 971495602#8.24 971495602#8.86 -313316104#6 -45378650#5 -45378650#5.11 -45378650#4 45378645#0 45378645#0.44 -908846596#3 -908846596#2 45378650#1 -908846593 -908846593.73 908560901#8 908560901#8.23 908560901#8.56 -313316104#0 -313316082 -45378649#12 896786296#0 896786296#1 896786296#1.36 -896786262#6 -896786262#6.15 -896786262#5 -896786262#4 -896786262#4.31 -896786262#3 -896786262#3.9 -896786262#1 -896786262#0 -896786262#0.33 -896786262#0.115 -896786260#1 -896786260#1.5 -896786260#0 -896786260#0.52 896786257#4 909024248 909024248.50 -45378665#3 -45378665#3.29 -45378665#3.50 -45378665#2 -45378665#2.36 -45378665#1 -45378665#0 -45378665#0.39 -45378665#0.75 -896786335#14 -896786335#14.27 -896786335#13 -896786335#12 -896786335#12.15 -896786335#11 -896786335#10 -896786335#10.38 -951976010#1 -951976011#0 896786321#2 -896786320#3 -896786320#3.5 -896786320#1 -896786320#0 -896786316#3 -896786316#2 -896786316#1 -896786316#1.33 -896786314 -951930663#1 -951930663#0 -877395784#11 -877395784#11.58 951946825#0 951946825#1 -951946816#4 951946844 877399011#1 951946810#2 -896786337#14 -896786337#14.40 -896786337#14.111 -952365020 -952365021 -951878231#2 -951951643#6 -951951643#5 -951951643#4 -951951643#3 -951951643#2 876509484#2 -951951642#1 -951951642#0 -951878263#5 -951878269#15 -951891772#2 -951891774 951891771#2 951878270#2 877401978#0 877401978#1 951878266#0"/>
</vehicle>
<vehicle id = "veh3" type= "veh_passenger" depart="3605" >
<route edges =" -45342801#4 -45342801#3 -45342801#2 -951368604 -951368605#0 -45342811#0 -45342801#0 45342798#2 45342798#3 45342798#4 45342798#5 45342813#0 45342817#0 45342816#0 45342816#1 -45342814#2 -45342814#1 44740902#11 44740902#12 45342802#1 45342841 44740885#8 -45342803#4 45342821#0 -45342822#2 -45342820#1 -45342804#3 -45342804#2 -45342804#1 -45342843#3 45342803#0 44740957#0 44740957#1 44740957#2 44740957#4 -671399051#1 -671399051#0 44740942#2 44740942#2.58 -874839172#0 -44740943 -313316091#20 951438760#0 951438760#1 -44740929#4 672215965#0 672215965#0.11 672215965#1 -44740922#0 -313316091#16 951438764 951438764.91 951438764.163 -44740923#3 -44740927#16 -44740924#1 -44740924#0 44740926#2 -951358804 -44740955#1 951358803 44740926#4 -44740925#1 44740989#0 44740923#1 -44740926#0 44740922#6 44740922#7 44740930#11 44740929#0 -44740967#3 -44740930#16 -44740962#2 -44740962#1 -44740962#0 44740960#1 -44740929#8 -44740929#7 -44740967#0 -902433296 -974189220#5 -974189220#4 951417475#1 44740901#2 44740901#3 44740901#4 44740896#0 44740896#1 -951417474 44740957#8 -44740895#3 -44740895#2 -44740895#2.69 44740972#0 44740972#1 -44740969#4 -44740969#2 -951439006 -951439007 -951439008 955813295#1 955813295#1.169 955410233 955410234 102277232#1 44739167#9 44739167#10 44740926#6 44740926#7 -951358806#1 -951358806#0 -951358801 44740953#6 44740952 -44740951#0 -44740953#4 44739167#13 -44740945#1 44740946#0 44740946#1 45378682#0 45378682#0.48 45378682#1 -45378689#0 45378683#1 45378655#2 -45378684#1 -671178935 -45378685#1 45378654#0 45378654#1 -45378657#3 -45378657#3.57 -45378657#3.61 -45378657#3.65 -45378657#3.69 -45378657#3.73 -45378657#3.78 -45378672 -45378672.64 45378673 -45378657#1 -44740931#2 -44740931#2.59 -313316091#1 -313316091#1.32 -44740920#8 -951358792 -951358792.26 -951358792.42 -951358792.53 -951358792.66 896892969#18 -971495601#9 -971495601#9.28 44740934#0 44740934#1 44740934#1.32 44740934#2 44740934#3 44740934#3.12 44740934#4 44740932#2 44740916#8 -668599377#1 -668599377#1.15 668599376#0 668599376#0.34 668599376#1 668599376#2 668599376#2.6 -668599375#0 -909019783 -909019783.98 -971495601#3 -44740910#8 -671410531#2 -909019784#2 -909019784#1 -909019784#1.47 -909019784#0 313316100#8 313316100#8.72 -971495601#0 -313316086 -44739144#26 -44739144#24 -44739144#22 -44739144#21 -44739144#20 -44739144#19 -44739144#19.14 702673217#0 702673217#1 702673217#2 702673217#3 702673217#4 702673217#5 896786276 896786276.34 896786277#2 896786277#3 -909024256#0 -909024256#0.28 896786279#5 896786278#1 896786267#2 -877398366#13 -671191680#14 -671191680#13 904286381#0 904286382#0 -904286383#4 -904286383#3 -904286383#3.28 904286380#1 904286380#1.17 904286380#1.44 877396860#13 896786290#3 896786290#4 896786290#4.40 896786290#5 877398366#16 904286386#0 904286386#1 904286386#1.27 904286386#2 904286383#0 904286383#1 -896786290#1 -896786290#1.17 -896786290#0 904286385#13 904286385#13.24 904286384#0 -904371470#1 904286386#4 904286386#4.19 904286386#6 904286386#7 951973455 -951973456#0 -904286387#2 -904286387#2.12 951973453#0 951973453#1 -951973451#1 -951973451#0 -671191683#0 -671191683#0.3 -671191683#0.13 -671191683#0.21 904371486#0 904371486#1 904371487#0 -904371489#2 -904371489#1 -904371489#1.14 -904371489#1.36 -904371489#1.40 -904371489#1.44 -904371489#0 -904371490#4 -904371490#2 951973469 -951973468#1 904286385#6 904286385#8 904286385#9 904286385#10 904286375#0 -904286372#0 -904286373#3 -904286373#3.24 -904286373#3.27 -904286373#2 -904286373#2.6 -904286373#1 -951975997 -904371467#2 -904371467#2.49 -904371467#2.113 904371464 896786325#1 -896786328#1 -896786328#0 -896786328#0.177 877395784#21 877395784#21.6 877395784#22 877395784#22.56 904371492#0 904371492#0.68 951973474#0 951973474#1 -951973473#0 951973472#1 -904371491 -904286385#2 -904286385#1 671191681#0 -951973436#2 -951973436#0 -951973436#0.3 -951973436#0.8 -877395784#25 -877395784#25.55 -952002224#7 -952002224#7.17 -952002224#7.71 -951973426#2 -951951638#8 -951973432#0 -952002224#5 -952002224#5.5 -952002224#4 -952002224#4.27 -952002224#3 -952002224#3.30 -952002224#3.48 -952002224#3.80 904286410#0 904286410#0.33 904286409#0 -951874860#1 951874872 -951874859#1 -951874859#0 951874858#0 951874858#1 951874858#2 896786339#3 896786339#3.3 896786339#4 896786339#4.4 -904286410#3 -904286410#2 -904286411#3 951874850#0 -951874849#1 -951874849#0 -951874848#0 -952002224#1 896786337#4 951951638#0 -952000397 -951951639#14 -951946794#0 951946792#1 896786337#8 896786337#8.8 -951887683 -951887684 -951887682#6 -951887682#5 -951887682#4 -951887682#3 951887692 -951887691#0 -951887682#0 -951887700#14 -951961240#3 -951961240#1 -951961245 951891772#0 -951891773 -951891771#0"/>
</vehicle>
<vehicle id = "veh4" type= "veh_passenger" depart="3605" >
<route edges =" 45342801#5 45342801#5.32 902433317#3 951421968#0 951421968#1 951421968#1.20 951421968#2 951421968#2.9 -45344271#34 -45344271#32 951368595#0 951368595#1 951368595#1.17 951368595#1.34 902433317#8 902433317#8.29 951368593#1 972507120#2 45342812#0 45342812#1 45342811#2 45342811#2.66 45344273#23 45344273#23.11 45344273#24 -897252873#2 -897252873#1 -897252873#1.42 -897252873#0 -897252873#0.25 897252876#4 45344320#2 45344320#3 -45344331#4 -45344327#0 -45344329#6 -45344329#5 45344333#0 -45344330#1 -45344330#0 902433295#4 902433295#4.36 902433295#4.49 902433295#5 -951404486#1 -951404486#0 45344333#2 -45344331#1 -45344331#0 45344326#3 699875133 -699875130#0 -699875130#0.26 -699875131#0 897172091#9 897172091#10 903341090 45344335#5 45344335#7 45344335#8 -45344336#7 -45344336#7.6 950235692#0 950235694#3 950235694#4 950235694#4.8 950235694#4.19 950235694#4.29 950235694#4.38 950235694#4.48 950235694#4.103 950235694#4.115 950235694#4.119 950235694#4.123 950235694#4.127 -950455050 -950455050.25 -950455050.33 -950455050.39 -950455050.53 -950455050.56 -950455050.59 -950455050.61 -950455050.72 -950455050.74 -950455050.76 -950455050.78 950455051#1 950455051#1.2 -950235703#2 -950235703#2.9 -950235703#0 -950235703#0.13 -950235703#0.32 -950235703#0.55 -950235703#0.71 -950235703#0.86 -950235703#0.97 -950235703#0.108 -950235699#4 -950235699#3 950235701 -950238179#1 -950238179#0 950238178#4 950238178#4.14 45344278#2 45344278#2.33 45344278#3 45344278#4 950238180#0 950238180#1 -950238184#3 -950238184#3.42 -950780323 -950780323.12 -950780323.20 -950780323.27 -950780323.33 950238182#2 950238182#2.9 -950238181#2 -950238181#2.23 -950238181#2.28 -950238181#2.32 -950238181#2.36 -950238181#2.40 -950238181#2.43 -950238181#2.49 -950238181#2.63 -950238181#2.65 -950238181#2.67 -950238181#2.70 -950238181#1 950780324#0 950780324#0.32 950780324#1 950780324#1.23 950780324#1.26 950780324#1.29 950780324#1.33 950780324#1.36 950780324#1.40 950238180#3 950238180#3.28 950238180#3.31 950238180#3.34 950238180#3.56 950238180#4 950238180#4.24 950238180#5 950238180#5.14 -950238178#0 897252880#9 -45344273#40 -950235700#3 -950235700#2 950235697#4 950235697#4.10 950235697#4.13 950235697#4.16 950235697#4.19 950235697#4.22 45344272#2 45344272#2.46 -45344336#3 -45344336#2 950553578#1 950553577#0 950553577#0.25 -950553576 -45344283#2 -45344283#1 -45344283#1.3 -45344283#0 -950641816#13 -950641816#13.116 -950238188#4 950641814 950641815#1 950641815#1.5 950641815#1.10 950641815#1.17 -950641813#0 -950641813#0.15 -950641813#0.21 -950641813#0.27 -950241847#5 -950241847#5.4 -950241847#5.12 -950241847#5.18 -950241847#5.23 -950241847#4 950238186#1 950238186#2 45344271#7 45344271#7.34 950235733#0 950235733#1 950641812#3 950641809#0 -950641810 -950641810.14 -950641810.18 -950641810.22 -950641810.27 -950235732#0 950641816#10 45344271#10 45344271#11 950806850#0 950806850#1 -45344277#8 -950235723#1 -950806860#0 -950806860#0.20 -950806860#0.30 -950806860#0.40 -950806860#0.51 -950806860#0.58 -950806860#0.64 -950806860#0.74 -950806860#0.80 -950806860#0.86 -950235722#1 -950235722#1.25 -950235722#1.38 -950235722#1.43 -950235722#1.46 950806859 950806859.14 950806859.25 950806852#0 950806852#0.16 950806852#0.21 950806852#0.26 950806852#0.31 950806852#0.35 950806852#1 -950235725#4 -950235725#3 -950235725#2 -950806855#1 -950806855#1.24 -950806855#1.29 -950806855#0 -950806855#0.17 -950806855#0.19 -950806855#0.21 -950806855#0.23 -950806855#0.25 -950235727#4 -950235727#3 -950235727#2 -950235727#2.16 -950235727#1 -950235727#1.45 897252880#3 897252880#4 950235729#0 950235729#1 950235729#2 950235729#3 950235729#4 950732877 950732877.20 950732877.23 950732877.26 950732877.34 950732877.37 950732877.40 -950872165#0 -45344285#6 -45344285#4 950641812#0 -950641811#1 -950641811#1.17 -950641811#1.24 -950641811#1.33 -950641811#0 -950641811#0.3 -950641811#0.9 950235732#4 950235732#5 950235732#5.16 951077734#0 -950241846#1 -950241846#1.22 951043903 950241823#3 45344284#12 45344284#12.58 950872160#0 951077740#0 951077740#1 951077738 45344285#9 45344285#9.26 45344285#10 45344285#10.3 45344285#10.10 45344285#10.14 45344285#10.20 45344285#10.25 950872160#2 950872160#2.4 950872160#3 950872160#4 950872160#4.25 950872160#5 -950241834#3 -950241834#2 -950241834#1 950241821#2 950241832#2 950241832#2.33 950241832#3 -951014858#3 -951014858#3.18 -951014858#3.23 -951014858#3.27 -951014858#3.30 -951014858#3.35 951014861#0 951014861#1 -950241831#3 -950241831#2 950241821#6 950241821#6.22 -950241825#1 -950241825#1.50 950241818#4 950241818#5 950241818#5.11 950241818#6 950241818#6.9 -950241831#0 -950929127#2 -950929127#1 950241823#5 -950241818#2 -950241818#1 -950241818#1.42 -950241821#13 -950241821#12 -950241820 950241819#2 950241819#3 951043907#0 -951043906#1 -951043906#1.11 -951043906#1.14 -951043906#1.17 -951043906#1.19 -951043906#0 -951043906#0.33 -951043906#0.37 -951043906#0.41 -950241821#8 950241823#7 950241823#8 -951014855#2 -951014855#1 -951014855#1.18 -951014855#1.42 -951014855#0 45344271#2 45344271#2.26 45344271#3 45344271#3.47 45344271#4 -902433322#2 -950241847#1 -950241859#1 -950241859#0 -950241859#0.36 -950241859#0.41 -950241859#0.44 -951043905#0 950241861#2 950241848#3 950241855#0 950241855#1 -950241851#1 -950241851#0 -950241857#3 -950241857#3.31 -950241857#3.55 -950241848#0 45344282#6 45344282#6.25 45344282#6.103 950243393#0 950241857#5 897252878#2 897252878#3 897252878#4 897252878#4.17 897252878#5 897252878#5.15 950241207#0 -950241208#2 -950241208#2.36 -950241208#0 -950241208#0.16 950241209#0 -950396022#1 -950396022#0 -897252878#0 -897252877#2 -897252877#2.49 950243392#0 950241209#3 950241209#3.37 -950396025 -897252877#0 -897252877#0.24 45344280#3 45344280#4 950241866#0 950241866#1 950241866#1.32 -950394091#1 -950394091#0 -950394091#0.13 -950394091#0.19 -950394091#0.26 -950241869#1 -950241869#1.4 -950394090#0 -950241868#0 950241866#4 950241866#5 950241865#1 950241865#2 950241869#3 950241869#3.5 950241869#3.10 950241869#3.17 -950394093#2 -950394093#2.45 950394092 950241866#7 950241866#7.10 -950241233#3 -950241233#2 -950241233#1 -950241233#0 45344280#11 45344280#11.11 45344280#11.23 45344281#0 45344281#1 950241866#9 -45344284#5 -45344284#4 -45344284#3 45344336#0 -950238193#2 -950238193#1 -950238193#0 45344280#14 45344280#14.13 45344280#15 45344283#5 45344283#6 45344283#6.72 45344283#6.89 45344283#6.131 950233989#0 950233989#1 950233989#1.12 950233989#1.21 -700278833#4 -950233988#2 -950233988#2.21 -950233988#2.33 -950318421#1 -950318420 -950318420.14 -950318420.24 -950318420.38 -950318420.55 -950318420.72 -950318420.83 -950318420.94 45344283#8 -950233988#0 45344272#5 45344272#6 45344272#7 45344272#7.21 45344272#7.41 950389249#0 950389249#0.37 950389249#0.40 950389248 950389248.21 950389248.25 950389248.29 950389248.34 950389248.56 950389248.59 950389248.62 950389248.66 -950389249#3 -950389249#3.3 -950389249#3.22 -950389249#3.25 950389246 950389246.10 950389246.16 950389246.23 950389247#2 950389247#2.5 950389247#2.13 897252850#2 897252850#2.5 897252850#2.24 -897252849 897252852#5 951370961#0 -951370960 897252858#1 -897252857 -45344294#1 -45344294#0 -45344304#5 -45344304#3 -45344304#3.29 -45344304#2 -45344304#2.28 -45344304#1 -45344304#1.10 -45344304#1.52 -897252851 -897252852#0 45344272#9 45344272#9.28 45344272#10 45344272#10.38 45344272#11 45344272#11.35 45344272#12 45344272#13 45344272#13.4 45344272#13.35 45344298 896892974 971495602#11 971495602#12 971495602#12.26 971495602#12.77 951442813 951442812#0 -896786335#50 -896786335#49 -896786247#9 -896786247#9.8 -896786247#9.17 -896786247#9.75 -896786247#9.157 -896786247#8 -908869236 -908869236.10 -908869236.25 -908869236.28 -908869236.31 -908869236.34 -908869236.36 -908869236.38 -908869236.41 -908869236.82 -908869236.85 -908869236.89 -908869236.92 -908869236.95 -908869236.97 -908869236.100 -896786335#43 -896786335#42 -896786335#42.22 896892977#0 896892977#0.14 896892977#1 896892977#1.45 896892977#1.56 -908869250#4 -908869250#4.38 -908869250#3 -908869238 -908869238.92 -896786335#39 -896786335#39.27 -896786335#37 -896786335#36 -951349917#1 -951349917#1.14 -951349917#1.29 -951349917#1.41 -951349917#1.59 -951349918 -951354772#1 -951354772#1.39 -951354772#1.50 -951354772#1.59 -951354772#0 -951354772#0.6 951354773#2 951354773#2.8 951354773#2.14 951354773#2.38 951354773#2.61 951354773#2.86 -951354771#1 -951354771#0 896893028#5 45378649#0 45378649#0.36 45378649#1 951354763#0 -951354765#0 -896786265#6 -896786265#6.26 -951358824#1 -951358824#0 -951358824#0.36 -951358824#0.42 -951358824#0.47 -951358824#0.59 -951358824#0.67 -951358824#0.72 -951358824#0.78 -896786335#27 -896786335#27.19 -896786335#26 -896786335#24 -896893004#5 896893002 896893002.42 -896786335#22 -896893013#7 -896893013#7.29 -896893013#7.87 951995483 -896893004#2 951995485 -896893005#0 -896893005#0.12 -896893005#0.57 -896893005#0.74 -896893013#3 -896893013#3.24 -896893013#2 896893010 896893010.28 896893010.97 896893012#6 896893012#6.21 896893011#1 -896786335#19 -896786335#18 -896786335#17 -896786335#17.2 -896786335#16 -896786335#16.7 909024246 909024246.10 909024246.18 909024246.25 909024246.61 909024250#6 909024239#0 909024239#1 909024239#1.17 909024239#2 909024239#2.40 -951983585 -951975994 896786325#3 -896786323#0 -896786323#0.137 -896786323#0.139 -896786323#0.141 -896786324#0 -896786324#0.19 -896786324#0.132 -896786324#0.177 -877395784#19 -877395784#17 -877395784#17.8 -877395784#17.24 -951946803#2 951946816#14 951946795#0 951946795#0.4 951946795#0.7 951946795#0.9 951946795#1 -951946802 951951639#3 951951639#4 951951639#6 951951639#7 951951639#8 951946799 951946795#6 -951946798#2 951951639#10 951951639#11 951946796#0 951946796#1 951946795#10 951946795#11 951946795#11.34 951946795#11.40 951946795#11.45 896786337#10 896786337#10.21 -951887700#20 -951887700#19 -951887686#1 -951887688#2 -951887688#1 -951887688#0 951887687#1 951887687#1.5 951887687#1.11 -951961233#4 -951961233#3 -951961233#3.25 -951961233#3.30 -951961233#3.34 -951961233#3.39 -951961233#1 -951961233#0 -951961233#0.33 -951961233#0.38 -951961233#0.43 -951961233#0.48 -876509484#8 -876509484#8.19 951878263#0 951878263#0.8 951878263#0.15 951878263#1 951878263#1.39 951878263#1.46 951878263#1.53 951878263#1.72 951878263#1.75 951878263#2 951878263#2.2 -951878266#4 -951878266#4.37 -951878266#2 -951878266#1 -951878266#1.39 -951878266#1.47"/>
</vehicle>
<vehicle id = "veh5" type= "veh_passenger" depart="3605" >
<route edges =" 951370989 951370989.40 951370989.47 951370989.53 951370989.56 951370989.62 951370989.64 951370989.67 -902433320#1 -902433320#0 902433321#2 -45342799#20 -45342797#4 -45342797#3 -951368601#1 -951368601#0 -951368603#0 45342835#2 45342809#2 45342809#3 -45342798#2 -45342798#1 45342840#0 45342840#1 45342840#1.79 45342840#1.84 45342840#1.87 45342840#1.91 45342840#1.95 671416444#0 671416442#0 -671416441 -671416443#0 671416444#2 -45342810#1 -45342810#0 45342809#5 -45342836#2 -45342836#0 45342818#2 45342818#3 45342814#5 45342809#8 45342809#9 45342809#10 45342809#10.44 45342825#0 45342825#1 45342825#2 45342828#0 45342828#1 45342828#1.100 -45344273#6 -45344273#6.40 -45344273#6.59 -45344273#5 -45344273#5.6 -45344273#5.15 -45344273#4 -45344273#4.8 -45344273#4.37 951384597 951384597.9 951384597.17 951384597.23 -951384598#2 -951404491 -951404491.16 -951404491.28 -951404491.40 -951404491.51 -951384599#0 700249213#9 700249213#10 700249213#11 45342808#10 45342808#11 45342808#11.24 951417471 951417471.18 951417471.38 951370965#1 951370965#1.28 951370965#1.49 45344314#2 700249213#0 700249213#1 897252867#0 897252867#0.29 897252867#0.37 897252867#0.64 897252867#0.82 897252867#1 897252867#1.15 897252864#0 897252864#1 897252864#3 -897252871 -897252870 -45344310#2 -45344310#1 -45344310#0 -45344310#0.10 -45344310#0.18 -45344310#0.30 -45344310#0.41 -45344310#0.52 971495602#8 971495602#8.24 971495602#8.86 -313316104#6 -45378650#5 -45378650#5.11 45378646#0 45378646#0.20 45378646#1 45378646#2 45378646#2.42 -45378647#3 -45378647#2 -45378647#2.16 -45378647#2.30 908846595#0 908846595#0.61 908846595#1 908846596#3 -45378645#0 -45378645#0.60 -45378650#3 -45378650#3.29 -45378650#2 -45378650#2.42 -45378650#2.62 -45378650#1 -908846596#1 -908846596#0 -908846596#0.31 908560901#7 908560901#8 908560901#8.23 908560901#8.56 -313316104#0 -313316082 -45378649#12 896786247#0 896786247#0.38 896786247#1 -908869244#2 -908869244#2.9 -908869244#0 -908869250#1 -908869250#0 -908869250#0.11 -908869250#0.41 -45378649#10 -45378649#10.20 -45378649#9 -45378649#9.7 951355297#0 951355297#1 951355297#2 951355297#2.63 -896786262#5 -896786262#4 -896786262#4.31 -951355295 951354762#1 951354762#1.1 951354762#1.3 951354762#1.20 896786261 -896786258#4 -896786258#2 -896786258#2.22 -896786258#0 -896786259#1 -896786259#1.16 -896786259#1.36 -896786259#1.39 -896786259#1.42 -896786259#1.44 -896786259#1.47 -896786259#1.55 -896786259#1.98 -896786260#6 -896786260#6.19 -896786260#4 -896786260#4.11 896786257#1 896786257#2 896786257#2.28 896786257#2.57 896786257#3 896786257#3.14 896786257#4 909024248 909024248.50 909024287#0 909024287#0.8 909024287#0.15 909024287#0.65 909024287#2 896786283#3 896786283#3.18 951433465 -876614861#3 -876614861#3.25 -876614861#2 -909024289#6 -909024289#6.17 -909024289#5 -909024289#4 -909024289#3 -909024289#3.21 -909024289#2 -909024288#1 -909024288#0 -896786287#2 -896786287#1 -951995479#0 896786286#2 896786286#2.19 896786286#3 -877396033#4 -877396033#4.15 -877396033#2 -877396033#1 -877396033#1.14 876614861#0 876614861#0.13 896786269#2 -671191680#16 -671191680#16.26 -671191680#16.32 -671191680#16.34 -671191680#16.37 -671191680#16.39 -671191680#15 -671191680#15.78 -877398366#12 -877398366#11 -877398366#11.11 -877398366#9 -877398366#8 -877398366#8.18 -877398366#8.84 -904371459 -904371459.17 -904371459.33 -904371460#1 951995474 -877396860#7 -877396860#6 -877396860#4 -904371460#5 -904371460#4 -904371460#4.9 -904371460#4.24 904371457 -896786291#1 -896786291#1.49 -896786291#0 -896786291#0.44 -896786292#0 -896786292#0.39 -951995475#1 -951995475#1.25 -951995475#0 896786293#2 896786293#2.8 896786293#2.28 896786293#2.36 896786293#2.45 896786293#2.48 896786293#2.52 896786293#3 896786293#3.29 -909024240 -909024240.17 -909024240.35 -909024241#0 -909024241#0.4 896786257#6 896786257#6.8 896786257#6.44 896786257#6.53 896786257#7 896786257#7.17 896786257#7.37 896786257#7.44 896786257#7.49 896786257#7.54 -45378665#1 -45378665#0 -45378665#0.39 -45378665#0.75 -896786300#3 -896786300#3.27 -896893012#1 -896893012#0 -896893012#0.11 -896786303#4 -896786303#4.22 -896786303#3 -896786303#2 -896786303#2.23 -951983587#8 -951983587#7 -951983587#6 -951983587#5 -951983587#4 -951983587#4.5 -951983587#4.15 -951983587#4.17 -951983587#4.21 -951983587#4.25 -951983587#4.34 -951983587#3 -951983587#3.2 -951983587#2 877398739#2 877398739#2.30 -951983590 896786311#10 896786311#11 896786311#11.62 -951976011#1 -951976011#0 896786321#2 -896786320#3 -896786320#3.5 951976009#0 -951976006#2 -951976007 896786335#7 896786335#8 896786335#8.14 896786335#9 -896786322 -896786322.14 -896786322.21 -896786323#1 896786325#4 896786325#4.12 -896786335#4 -896786335#4.18 -896786317#3 -896786317#3.20 -896786317#2 -896786317#2.9 -896786319#4 -896786319#2 951976008 -951976006#0 -896786315#2 896786320#0 -877396172#5 -877396172#3 951976013#0 951930665#0 951930667 -951930666#0 -951930666#0.43 -951930666#0.46 -951930666#0.48 -951930666#0.51 951930665#2 951930664#4 951930664#5 -896786316#1 -896786316#1.33 -896786314 -951930663#1 -951930663#0 -877395784#11 -877395784#11.58 951946825#0 951946825#1 -951946816#4 -951946816#2 -951946816#1 951946810#0 951946810#1 951946810#2 -896786337#14 -896786337#14.40 -896786337#14.111 -952365020 -952365021 -951878231#2 951868619#0 951868620#0 -951868611#1 -951878231#0 951951645 -951951643#3 -951951643#2 876509484#2 -951951642#1 -951951648#1 951951649 951878263#7 951878263#8 951878230#4 -951891772#4 -951961237 951891766#3 951878269#12 951878269#13 951878269#14 -951891772#2 -951891774 951891771#2 951930613 -951878269#9 951891767 951891769#0 951891769#0.18 951891769#0.24 951891769#0.29 951891769#0.46 951891769#0.50 -951891768 -950288028#1 -950288028#0 -951878269#4 -951878269#2 -951878269#1 -951878269#1.25 -951878269#1.51 -951878269#1.75 -951878269#1.92 -951887655#4 951887656#0 951878272#1 951878272#2 -951887657 -951887655#1 -951887655#0 -904196454#0 700825962#5 700825962#5.39 700825962#6 700825962#7 700825962#7.15 700825962#7.28 700825962#8 700825962#8.3 951887700#0 951887700#1 -951887701#0 -951887666#0 700825961#6 700825961#6.39 951887664#0 951887664#1 -904196454#4 951887659#0 951887659#1 -951891763#1 951891765#3 -951917022 951887661#1 951887661#2 951887661#3 951878266#0"/>
</vehicle>
<vehicle id = "veh6" type= "veh_passenger" depart="7210" >
<route edges =" -45342801#4 -45342801#3 -45342801#2 -45342801#1 -45342801#0 -45342798#1 45342840#0 -45342810#2 -671416444#2 671416443#0 671416443#1 -671416440 671416442#2 -45342838#1 -45342838#0 -45342810#0 45342809#5 -45342836#2 -951441769 -951370985#0 -45342818#2 -45342818#1 -45342817#2 -45342803#7 951370984#0 951370984#1 951370984#2 44740902#10 44740902#10.9 44740902#11 -44740885#6 -44740885#5 -44740885#5.33 -671399053 -671399054#0 671399058#1 671399058#2 44740901#4 44740896#0 44740896#1 44740896#2 44740896#3 -44740959#1 -44740959#0 44740895#3 -44740957#8 -44740957#7 -44740957#6 -44740957#5 -44740957#4 44740902#14 44740902#14.81 44740902#14.94 -874839172#0 -44740943 -313316091#20 951438760#0 -672215964 -672215965#0 -672215965#0.46 44740929#4 44740929#5 44740929#6 44740967#1 -951438763#1 -951438763#1.52 -951438763#0 -951438763#0.72 -951438763#0.77 -951438763#0.80 -951438763#0.82 -951438763#0.85 -44740929#2 -44740929#1 -44740967#3 -44740930#16 -44740930#15 44740963 -44740962#0 -44740960#0 -44740930#13 -44740930#12 -44740930#11 -44740930#10 44740923#0 -44740989#0 44740925#1 -44740926#4 -44740926#3 -951358804 44740955#2 44740924#1 44740927#16 44740927#17 -44740922#3 44740953#0 44740953#2 44740940#0 44740945#0 44740945#1 44739167#14 44740949#0 44740949#1 -44740953#7 44740952 -44740951#0 -44740953#4 -44739167#12 -44739167#11 -44739167#10 -44740930#7 -44740930#6 44739163#15 -44740981#1 -44740981#0 44739156#15 44739156#16 -44740927#4 951438767 951438767.14 951438767.19 951438767.25 951438767.33 951438767.38 951358798#1 951358798#1.17 44740927#6 -44740987 44740985#1 44740983#1 44740927#9 44739163#18 44739163#19 -44740919#1 -44740919#0 -951358792 -951358792.26 -951358792.42 -951358792.53 -951358792.66 896892969#18 45340579#18 45340579#18.164 44740932#0 909019790#0 909019790#0.39 -909019789#2 909019788 909019791#2 44740933#0 44740933#1 909019787 44740932#5 44740910#6 909019782 909019781#1 -44740932#3 44740916#8 44740916#9 44740916#9.64 44740916#11 44740916#12 -909019766#1 -909019766#1.6 -909019766#1.14 -909019766#1.30 -909019766#1.52 -909019766#0 909019767#1 909019767#1.24 909019767#1.35 -971495601#5 -45378660#1 -45378660#1.21 -45378660#1.52 -45378660#1.88 -45378660#1.126 -908560900#3 -908560900#2 -908560900#1 -908560901#21 -908560901#21.18 -908560901#21.74 -908560901#20 -908560901#20.10 -908560901#20.61 -908560901#20.115 -908560901#19 -908560901#19.77 -908560901#19.104 -896786299#0 -896786298 -45378665#19 896786295#0 896786295#0.19 896786295#1 896786295#1.16 951347813#0 951347813#0.59 951347813#1 951347813#1.31 951347813#1.37 -909024258#0 -909024259#1 -909024259#1.12 -909024259#0 -896786295#4 -951346847 -951346847.28 -951346847.37 -951346847.45 -951346847.52 -951346847.78 -951346847.86 -951346847.93 -951346847.99 -951346847.106 -951346847.111 -951346847.116 896786282#2 896786282#2.23 896786282#2.28 896786282#2.32 896786273#0 896786280#0 896786280#0.19 896786280#0.47 896786280#1 896786280#2 896786280#3 909024260 909024260.21 909024260.64 909024260.121 951346848#1 896786296#16 -951433468 -951433468.13 -951433468.23 -951433468.31 -951433468.39 -951433468.47 -951433468.59 -909024276#0 -909024276#0.55 896786296#18 896786296#18.4 896786296#18.17 -44739144#24 909024272#0 909024272#0.29 909024272#1 909024272#1.30 909024272#1.53 -909024271#0 -909024271#0.59 -909024271#0.78 909024277#2 909024277#2.19 909024277#2.45 909024277#3 909024273#2 -909024275#1 -909024275#0 -909024275#0.56 909024279#3 909024279#4 909024279#4.20 -909024280#1 -909024280#1.18 909024278#1 909024278#1.42 896786294#7 896786294#7.18 896786294#8 896786294#10 896786294#11 896786294#11.40 896786294#12 896786294#12.25 896786294#12.31 896786294#12.37 896786294#12.41 896786294#12.47 -44739144#21 -951346849 -909778546#0 -903953325#2 -903953325#2.18 -903953325#1 903953324#0 903953324#1 903953324#1.22 -44739144#18 -877398366#21 -877398366#20 -909024264#1 -909024263 -909024263.30 -909024265#0 -896786289#0 -896786289#0.7 877396860#20 877396860#20.72 877396860#21 -952002225#1 909024265#3 671960104#0 671960104#1 671960102 -671960101#10 44740913#4 44740913#5 -44739144#12 -44739144#11 -44739144#10 -904371478#2 -904371478#2.24 -904371478#1 -904371478#1.6 904371479#1 904371479#1.2 904371479#1.8 904371479#1.27 904371479#1.58 -904371474#3 -904371474#2 -904371472#1 -904371472#1.50 904371471 -904371473#1 -904371473#1.10 904371470#0 -904286386#3 -904286386#3.11 -904286386#3.33 904286383#0 904286383#1 896786290#2 896786290#3 909024292 909024292.65 -909024293#2 -904286386#0 877398366#17 877398366#17.93 877398366#18 896786289#2 702673217#3 909024268#0 909024268#0.30 -909024267 -909024267.44 702673217#5 896786276 896786276.34 896786278#0 896786278#0.39 -896786279#5 -896786279#4 -896786279#4.27 -896786279#3 -896786279#3.22 -896786269#4 896786267#1 896786267#1.28 896786267#2 -904286382#4 -904286382#4.34 -904286382#3 -904286378#1 -904286378#0 -904286380#2 -877396860#12 -904286382#1 -904286383#4 -904286379 -904286381#2 -904286381#0 671191680#13 -877396860#10 -896786284#1 -896786284#0 -896786284#0.50 877396033#2 877396033#4 877396033#4.19 877396033#5 877396033#5.33 -896786287#2 -896786292#3 -896786292#2 -896786292#2.20 -896786292#2.58 896786291#0 896786291#0.19 -896786288#0 -896786288#0.20 -896786288#0.42 -951995479#1 -951995479#0 -896786286#1 -896786286#1.14 -896786286#0 -896786286#0.12 877398366#9 -904371462#2 904371460#0 904371460#0.34 951995474 -877396860#7 904371461 904371461.86 904371461.132 904371461.161 904371461.165 904371461.167 904371461.172 904371458#1 -877396860#4 -896786328#3 -896786328#3.70 -896786328#2 -896786328#2.49 -896786325#1 -896786325#0 -896786325#0.9 -896786325#0.61 -896786325#0.67 -896786325#0.74 -896786325#0.80 -896786325#0.89 -671191680#6 -896786326#1 -896786327#1 -896786327#1.48 -896786327#1.55 -896786327#1.60 -896786327#1.64 -896786327#1.68 -896786327#1.74 -896786327#1.124 -896786327#1.170 -896786327#1.205 -896786327#1.211 -896786327#0 -877395784#21 -877395784#21.14 -951951638#10 -951951638#10.18 -951951638#9 951973426#2 -952002224#6 -952002224#5 -952002224#5.5 -952002224#4 -952002224#4.27 951946798#0 -951951638#3 -951951638#2 -951946794#1 -951946794#0 951946792#1 896786337#8 896786337#8.8 -951887683 -951887684 -951887682#6 951887695#5 -951887700#19 -951887700#18 -951887690 951887688#2 -951887686#0 -951887682#4 -951887682#3 -951887682#2 -951887682#2.37 -951887682#1 -951887682#1.2 -951887682#1.5 -951887682#0 -951887700#14 -951887679#2 951887680 -951887678#1 951887679#0 -951887681 951887675#1 -951887674#2 -951887674#1 -951887674#1.5 -951887674#1.8 -951887674#0 904196453#11 904196453#12 904196453#12.12 904196453#12.67 -904196452#8 -904196452#8.9 -951887672#4 -951887671#1 -951887673#1 -951887669#1 951887668#0 951887668#1 -904196452#6 -904196454#8 -904196454#8.8 951887700#4 951961236#0 951887665 -904196454#6 -904196454#5 951887664#2 951887664#3 877401978#3 877401978#3.14 951887700#8 951887700#8.5 951887700#8.7 951887700#8.11 951887700#10 951887700#11 951961240#0 951961240#0.54 951961240#0.57 951961240#0.59 951961240#0.62 -951961245 951891772#0 -951891773 -951891771#0"/>
</vehicle>
<vehicle id = "veh7" type= "veh_passenger" depart="7210" >
<route edges =" 45342801#5 45342801#5.32 902433317#3 902433317#4 -951370988 -951370988.61 -951370988.66 -951370988.72 45342799#25 45342799#25.7 45342799#25.22 45342799#26 45342799#27 45342799#27.15 45342799#27.20 45342799#27.25 45342799#27.36 972507120#0 972507120#2 972507120#3 -951366780#1 -951366780#1.2 -951366780#1.41 951366779#0 951366779#1 45342812#1 45342811#2 45342811#2.66 -45344273#22 -45344273#22.6 -45344273#22.18 -45344273#22.35 -45344273#21 -45344273#21.28 -951441770 45342810#5 -973399407#2 -973399407#1 -973399407#0 -44740885#13 -44740885#13.4 -44740885#13.21 -44740885#13.24 -44740885#13.27 -44740885#13.31 -44740885#13.35 -44740885#13.56 -44740885#13.59 -44740885#13.62 -45342810#10 -45342810#10.21 -45342810#8 -45342810#8.5 -45342810#7 -45342810#7.44 44740885#17 902433295#0 902433295#0.35 902433295#1 -897252876#8 -897252876#7 -45344321#1 -45344321#0 45344273#18 45344273#18.15 45344322#0 45344322#1 45344322#2 -897252876#5 -897252876#5.20 45344320#2 45344320#3 45344320#4 45344320#5 45344320#5.26 45344320#6 45344320#6.8 45344320#7 45344320#7.38 45344320#7.55 45344320#7.60 45344320#7.63 45344320#7.67 45344320#7.80 45344320#7.86 -950235691#1 -950235691#0 -950235691#0.4 950235690#1 -45344335#3 -45344335#2 699875131#2 -950400194#2 950235689#2 -45344335#0 -45344335#0.49 -950400195#2 -950400195#2.10 950400194#0 -950400193#1 -950400193#0 -950400195#0 -700254525#5 951141449 951141449.18 951141449.22 951141449.26 700254525#8 700254525#9 700254525#11 700254525#12 700254525#12.12 -45344336#6 -45344336#6.35 -45344336#5 -45344336#4 -45344336#3 45344283#4 45344283#5 -950553582#2 -950553582#2.27 -950553582#1 -950553582#1.2 -950553582#1.5 -950553582#1.66 -950553582#1.76 -950553582#1.84 -950553582#1.90 -950553582#1.96 -950553582#1.103 -950553582#1.114 -950553582#1.120 950553581#0 950553581#0.7 950553581#0.14 700278833#6 700278833#6.17 700278833#6.73 700278833#6.117 -45344280#12 -700278832#5 -700278832#5.26 -700278832#4 -700278832#4.61 950390893#0 950390893#1 950390893#1.14 950390893#1.19 950390893#1.23 950390893#1.28 950390893#1.54 950390893#3 950390893#4 950390893#4.14 950390893#4.31 950390893#4.48 45344280#9 45344280#9.7 950241233#0 950241229#0 950241229#1 950392116#1 -45344280#7 950241224#0 950241224#0.21 950241224#0.25 950241224#0.29 950241224#0.34 950241224#0.39 950241224#0.43 950241224#0.53 -950390890 -950390890.10 -950390890.15 -950390890.19 -950390890.22 -45344280#4 950394096#0 -950394095 950241866#3 950241866#3.97 950241866#3.100 950241866#3.104 950241866#4 950241869#0 950241869#0.6 950241869#0.16 950394090#1 -950241865#1 950241866#6 950241866#6.19 950241866#6.38 -950394092 950394093#2 950394093#2.2 950241869#4 950238192#1 950238192#1.16 950238192#2 950238192#2.2 950238192#2.5 950238192#3 45344281#1 45344281#2 -45344282#4 45344284#7 45344284#7.45 45344284#7.106 45344284#8 45344284#9 45344284#10 45344284#11 950241823#4 -950929127#0 -902433322#2 -950241847#1 -950241859#1 -951043905#1 -951043905#1.58 -951043905#1.61 -951043905#1.65 -951043905#1.69 -951043905#0 -950241861#1 950241857#0 950241857#1 950241857#1.22 950241857#1.26 950241857#1.30 950241857#2 -950241848#0 45344282#6 45344282#6.25 45344282#6.103 45344282#7 897252878#0 950396022#0 950396022#1 950241209#2 950241209#2.6 950241209#2.13 950241209#2.18 950241209#2.32 950241209#2.44 950241209#2.66 950241209#2.89 -950243392#0 -897252877#1 950396025 950241209#4 950241209#4.21 950241209#5 950241209#5.13 45344280#2 45344280#2.21 -950241220#4 950241223#0 -950241222#3 -950241222#1 -950241222#1.13 -950241222#1.96 -950241222#0 -700278833#1 950241220#0 950241220#0.109 950241220#0.162 950241220#1 950241220#2 950390892#0 950390892#0.36 950390892#0.42 950390892#0.47 950390892#0.51 -950389244#0 -950389244#0.11 -897252879#13 -897252879#12 -897252879#12.59 -950243392#2 950243391#1 950243391#1.110 950243391#2 950243391#2.3 950243391#2.6 -897252879#10 -897252879#9 -950396019 950396018#0 950397771 950397771.35 950397771.39 950397771.42 950397771.45 950396021#2 950396021#2.14 950396021#2.19 950396021#2.24 950396021#2.28 950396021#2.32 950396018#3 897252878#4 897252878#4.17 -950241855#4 950243393#2 950243393#2.16 950243393#2.38 950243393#2.63 950243393#2.109 950243393#3 950243393#3.20 950243393#4 950243393#4.5 950243393#4.47 950241823#10 -897252878#9 -897252878#9.96 -897252878#8 -897252878#8.12 -897252878#7 950241205#0 -950397769#0 950241207#2 -897252879#6 -897252879#6.15 -897252879#5 -950397767#1 -950397767#0 950397769#2 -950241202#1 -950241202#1.30 -950241202#0 -897252879#3 950241203 950241203.46 950241203.47 950241203.49 950241203.51 950241203.66 950241203.68 950241203.70 950241203.73 -897252879#1 -897252879#1.25 -897252879#0 -897172107 -897172108#14 -897172108#13 -897172108#13.42 -897172108#13.49 -897172108#13.64 -897172108#13.76 -950239901#3 -950239901#2 950239900#0 950239883#0 950239883#0.10 950239883#0.21 950239883#0.30 950239883#0.38 950239883#0.48 950239883#1 950239883#1.39 950239883#1.63 950239883#1.82 950239883#1.118 951132944#3 897172106#15 897172106#15.16 897172106#15.44 897172106#15.79 897172106#16 897172106#16.31 950241210 950241210.23 -897615342#0 -897615342#0.8 -897615342#0.25 -897615342#0.39 897615343#2 897615343#2.11 950293294 950293294.21 950293294.24 950293294.27 950293294.44 950293294.50 950293294.58 950293294.65 950293294.80 950293294.85 950293294.91 950293294.96 897615342#2 897615342#3 897615342#4 897615342#4.20 897615342#4.54 -45343180#6 950287959#0 950287959#1 950287957#0 950287957#1 897615339#6 897615339#6.33 897615338#5 897615338#5.24 897615338#5.44 897615338#6 -897615334#7 -897615334#7.38 -897615334#7.63 -897615334#7.84 -897615334#6 -950239884#2 -897615335#6 -897615335#6.20 -897615335#5 -897615335#5.21 -951132944#0 950239895#0 897615336#1 -950239894#0 -897615334#1 -897615334#0 -897615334#0.16 -897615335#2 -897615335#2.11 -897615335#2.27 -897615335#1 -950304248#2 -950304248#2.22 -950304248#1 950239895#2 -671176469#14 -671176469#13 -671176469#11 -671176469#11.1 -671176469#11.8 -671176469#11.17 -671176469#10 -671176469#10.76 -671176469#9 897615369#0 897615369#0.22 897615369#0.32 897615369#0.42 897615369#1 -897615371#3 -897615368 -950232592#2 -950232592#1 -950232592#0 -897615362#0 -897315574#1 -897315574#1.30 897615363#0 897615363#1 897315577#3 -671176469#7 -671176469#6 -671176469#5 -671176469#4 897315573#0 897315575#1 -897315576#0 -897315576#0.9 897315572#1 897315573#2 897315573#2.12 897315573#3 897315578#14 897315578#14.17 897315571#2 897315571#3 897315571#3.17 897315571#3.66 897315571#4 897315571#4.31 897315571#5 -671176469#2 -897615348#4 -897615348#3 -897615348#3.18 -897615348#2 -897615348#1 -897615348#0 897315567#2 -897315566#4 -951136520#0 897615350#1 -897315567#0 896940752#3 897615349#0 897615347#0 897615347#0.86 951136519 951136519.12 951136519.25 896940752#5 897172100#0 897172100#0.29 950232593#0 950232593#0.152 950232593#1 950232593#1.37 950232593#2 950232593#3 -671176477#10 -671176477#9 -671176477#9.13 -671176477#9.60 -671176477#9.86 -671176477#9.104 897615339#0 950239880#0 950239880#1 950239880#2 950239880#3 45343180#1 45343180#1.33 45343180#1.64 45343180#1.87 45343180#2 45343180#2.4 45343180#2.9 45343180#2.19 -897615334#9 -897615334#9.16 -950239877#3 -950239877#2 -950239877#2.21 -950239877#2.42 -897615339#4 -897615339#4.10 -45343180#4 -45343180#4.39 950287962#0 950287962#1 950239879#0 950239879#1 950239879#2 950239879#3 950287964#1 950287964#2 -897615340#0 -897615340#0.22 -897615340#0.41 897615341#3 897615341#3.8 -671176475#7 -950278751#3 -950278751#3.25 -950278751#3.27 -950278751#3.29 -950278751#3.32 -950278758#2 950239881#1 950232595#2 950232595#4 950232595#4.30 950232595#5 -950232596#10 -950232596#10.21 -950232596#10.36 -950232596#9 -950232596#9.10 -950232596#8 -950232596#7 -950232596#6 -950232596#6.15 -950232596#5 -950232596#5.11 -950232596#4 -950232596#4.9 951141459#0 951141459#1 951141458#2 951141458#2.11 951141458#2.18 951141458#2.24 951141458#2.29 951141458#2.37 951141458#2.45 951141458#2.53 951141458#2.64 951141458#2.77 951141458#3 -950232594#0 -950232594#0.15 -950232594#0.23 -671176475#3 -671176475#3.2 -671176475#3.34 -671176475#3.40 950285698#0 950285698#0.6 950285698#0.11 950285698#0.18 950285698#0.29 950285698#1 950285698#1.5 950285698#1.9 950285698#1.14 950285701#1 -950239856#6 -950239856#6.12 -950239856#5 -950239856#5.5 -950239856#5.16 950239859 950239859.34 -671176475#0 -671176477#6 -671176477#6.25 -950239856#3 -950239856#2 -950239856#2.35 -950239856#1 -950239856#1.19 950241214#3 950241214#3.37 950241214#3.46 950241214#3.56 950241214#3.63 -950241212#0 45343180#8 45343180#8.54 -950239861#5 -950239861#4 -950239861#4.75 -950239861#4.114 -950239861#4.121 -950239861#4.126 -950239861#4.132 950241214#0 950241214#1 950241214#1.21 -950241216 -950241216.24 -950241216.47 950241218 950241218.22 -671176477#4 -671176477#4.46 -671176477#3 -671176477#3.21 -671176477#2 -671176477#2.29 950239865 950239865.64 950239865.70 950239865.74 950239863#1 950239862#4 950239862#5 950239862#6 950239862#6.12 950239862#6.25 950239862#6.31 950239862#7 950239862#7.8 950239875#0 950239875#0.11 950239875#0.17 950239875#0.24 950239875#0.29 950239875#0.35 950239875#0.40 950239875#0.46 950239875#0.54 950239875#0.61 950239875#0.102 950239875#0.105 950239875#0.107 950239875#0.111 950239875#0.146 950239875#0.155 950239875#0.162 -950239871#3 950239872#0 950239872#1 897172100#6 897172100#6.11 897172100#6.19 897172100#6.29 897172100#6.43 897172100#6.59 897172100#6.85 897172100#6.108 897172100#8 897172100#8.31 671176479#0 671176479#0.43 -950273502#3 -950273502#2 -950273502#2.38 -950273502#1 -950273502#1.14 -950273502#1.28 950276714#0 950239871#0 950239871#0.14 -950282462 -950282462.26 -950282462.36 -950282462.45 -950282462.53 -950282462.60 -950282462.67 -950276710#1 -950276710#1.5 -950276710#1.13 -950276710#0 -950276710#0.10 -950276710#0.32 -950239862#1 -671176478#1 -671176478#1.5 -671176478#1.11 -671176478#1.22 -671176478#1.56 -671176478#0 -671176478#0.38 -671176478#0.42 -671176478#0.45 -671176478#0.50 -671176478#0.54 -897172102 -897172103 -671176472 897252879#17 897252879#18 897252879#18.162 897252879#19 897252879#19.29 897252879#20 897252879#21 897252879#21.85 897252879#22 897252879#23 896892972 896892973 896892973.27 896892973.31 -896786335#50 -896786335#49 -896786335#48 -896786335#48.15 -951354780 -951354780.15 -951354780.24 -896892981#10 -896892981#10.8 951354779 951354779.19 951354779.26 951354779.35 951354779.44 -896786335#46 -896786335#44 -896786335#44.9 -896786335#44.71 -896786335#43 -896786335#42 -896786335#42.22 896892977#0 896892977#0.14 896892977#1 896892977#1.45 896892977#1.56 -908869250#4 -908869250#4.38 -908869250#3 -908869238 -908869238.92 -896786335#39 -896786335#39.27 -896786335#37 -896786335#36 -951349917#1 -951349917#1.14 -951349917#1.29 -951349917#1.41 -951349917#1.59 -951349918 876614662#9 876614662#9.52 -951354773#3 -951354773#3.20 -951354773#3.23 -951354773#3.26 -951354773#3.28 -951354773#3.30 -951354773#3.32 -951354773#3.34 -951354773#3.38 -951354773#3.40 -951354773#3.43 -951354773#3.45 -951354771#1 -951354771#0 896893028#5 45378649#0 45378649#0.36 45378649#1 45378649#2 45378649#2.17 -896786265#8 896786264 896786264.45 896786264.99 896786263#1 896786263#2 896786263#2.22 -896786253 -896786253.32 -896786253.95 -896786265#5 -896786265#4 -896786265#4.59 -896786265#2 -951995492#1 -951995492#0 -951995491#0 -896786266#12 909024250#0 909024250#1 -909024243#1 -909024243#1.11 -909024243#1.69 -909024243#1.72 -909024243#1.74 -909024243#1.78 951995495 896786335#19 -896893011#1 -896893011#0 -896893011#0.52 896893013#3 896893013#3.9 -896786308#6 -896786308#6.17 -896786308#4 896893000 896893000.62 896893000.89 -896786307#6 -896786307#6.13 -896786307#6.32 -896892993 -896892993.12 -896892993.38 -896892998#1 -896892992 -896892992.49 -896786305#1 -896786305#1.42 -896786308#1 -896786308#1.17 -896786308#0 -896786308#0.15 -896786309#2 -896786309#2.4 -896786309#2.65 -896786309#1 -896786309#0 896786304#2 896786300#0 896786300#0.23 896893013#0 896893013#0.10 896893013#0.59 -896893009 -896893009.79 -896893012#4 -896893012#3 -896893012#2 -896893012#2.9 896786300#3 896786300#3.17 -896786335#14 -896786335#14.27 909024236#1 909024236#1.12 909024236#1.82 909024239#1 909024239#1.17 909024239#2 909024239#2.40 877398366#3 951995475#4 904371460#5 -877396860#3 -951975994 -896786325#2 -896786328#1 -896786328#0 -896786328#0.177 -877395784#20 -877395784#19 -877395784#17 -877395784#17.8 -877395784#17.24 -877395784#15 -877395784#14 -877395784#14.13 -877395784#13 -877395784#13.47 -951946824 -951946822 951946821#2 951946820#1 -951946816#6 -951946816#6.36 -951946816#6.40 -951946816#6.43 -951946816#6.46 951946819#0 951946819#1 -951946818#2 -951951635#2 -951951631#1 -951975993 951946833#5 -951951632#2 -951951632#2.4 -951951632#2.8 -951951632#2.12 -951951634#1 -951951634#1.9 -951951634#1.13 -951951634#1.16 -951951634#1.20 -951951634#0 951946816#13 951946816#13.22 951946816#13.26 -951946803#1 -951946803#1.55 -951946803#1.59 -951946803#1.61 -951946803#1.64 -951946803#0 951951639#1 951951639#3 951973426#1 -951951638#8 951973432#1 951951639#6 951951639#7 -951973430#1 -951951638#4 951946798#1 951946798#2 951946795#7 951946795#9 951946795#10 951946795#11 951946795#11.34 951946795#11.40 951946795#11.45 896786337#10 896786337#10.21 -951887700#20 671756019#0 -951961251#1 -951961251#0 951878263#0 951878263#0.8 951878263#0.15 -951878265#1 -951878266#5 -951878266#5.22 -951878266#5.29 -951878266#5.37 -951878266#4 -951878266#4.37 -951878266#2 -951878266#1 -951878266#1.39 -951878266#1.47"/>
</vehicle>
<vehicle id = "veh8" type= "veh_passenger" depart="7210" >
<route edges =" 951370989 951370989.40 951370989.47 951370989.53 951370989.56 951370989.62 951370989.64 951370989.67 -902433320#1 -902433320#0 902433321#2 45342799#21 45342809#0 951368600#0 951368600#1 -45342797#3 -45342797#2 -951370983 -951368602#0 -45342835#0 -45342797#0 -45342834#1 -45342834#0 44740902#8 -45342798#6 45342813#0 45342817#0 45342816#0 -951370984#0 -45342803#6 45342814#4 -45342818#3 951370985#0 951370985#1 45342809#7 45342809#8 -44740885#9 -44740885#9.34 -45342803#4 -45342803#3 45342820#0 45342820#1 45342822#2 45342821#1 45342821#1.9 45342809#10 45342809#10.44 45342809#11 -45342831#3 -45342831#2 951421967 -951417480#0 -45342805#3 -45342805#2 -45342805#1 -45342805#1.66 -45342805#0 -45342805#0.29 897252872 897252872.36 45342833#0 45342833#1 45342833#2 45342824#1 45342824#2 951366786 45342833#4 45342823#1 45342823#2 45342828#1 45342828#1.100 -45344273#6 -45344273#6.40 -45344273#6.59 -951384598#3 -951384598#2 -951404491 -951404491.16 -951404491.28 -951404491.40 -951404491.51 -951384599#0 -897252868#5 -897252869#2 897252861 -897252860#0 -897252868#2 -897252868#1 -897252868#1.11 -897252868#1.30 700249213#4 700249213#4.7 700249213#4.65 700249213#4.70 700249213#4.76 700249213#5 700249213#5.63 700249213#6 45344290#0 45344290#0.48 45344290#0.50 45344290#0.52 45344290#0.55 45344290#1 45344290#2 -951370976#1 -951370976#0 -951370976#0.11 -951370976#0.13 -951370976#0.16 -951370976#0.19 -951370976#0.21 -951370976#0.23 -897252863#2 -45344304#10 -45344304#9 -45344304#8 -45344304#8.11 -45344304#7 -951370973#1 951370972 951370971#0 951370971#1 951370963 897252863#5 897252863#6 897252863#7 45344287#3 45344287#3.3 45344287#3.50 -700249213#2 -700249213#1 -700249213#0 45344314#3 -45344315#2 -45344315#1 -45344315#1.25 -45344315#0 -45344315#0.31 700249213#11 45342808#10 45342808#11 45342808#11.24 45342808#12 -897252871 -897252870 -45344310#2 -45378639#12 -45378639#12.97 -951404475 -951404475.33 -951404475.43 -951404476 -951404476.16 -951404476.32 -951404476.50 -951404476.59 -951404476.68 -951404476.84 -951404476.93 -951404476.101 -951404476.106 -951404476.113 971495602#7 971495602#7.32 971495602#7.56 971495602#8 971495602#8.24 971495602#8.86 -313316104#6 -45378650#5 -45378650#5.11 45378646#0 45378646#0.20 45378646#1 45378646#2 45378646#2.42 45378646#3 -908846598#1 -908846598#1.20 -908846598#1.40 -908846598#1.44 -908846598#1.67 -908846598#1.96 -908846598#1.126 -908846598#0 -908846598#0.31 908560901#2 908560901#2.40 908560901#3 -45378645#2 -45378645#2.23 -45378645#1 -45378645#1.71 -45378645#1.124 -908846596#3 -908846595#1 -908846595#0 -908846595#0.21 -951435501 -951435501.23 908560901#5 908560901#5.28 908560901#5.87 908560901#6 908560901#6.50 908560901#6.91 908560901#6.131 908560901#7 908560901#8 908560901#8.23 908560901#8.56 -313316104#0 -313316082 -45378649#12 896786296#0 -951355298#2 -951355298#2.7 -951355298#2.9 -951355298#2.11 -951355298#2.15 -951355298#2.38 -951355298#2.43 951355292 -45378649#9 -45378649#9.7 951355297#0 -951355296 951354759#1 951354759#1.10 951354759#3 951354759#4 951354759#4.40 -896786262#4 -896786262#4.31 -896786262#3 -896786262#3.9 -896786258#4 -896786258#2 -896786258#2.22 -896786256 -896786256.31 -896786256.68 -896786256.122 -909024254 -909024254.11 -909024254.37 -951358819 -951358819.10 -951358819.14 -951358819.18 -951358819.25 -951358819.35 -45378665#8 909024255 909024255.12 909024255.40 909024255.70 896786266#4 896786266#5 896786266#6 896786266#6.16 896786266#7 -909024252#1 -909024253#2 -909024253#2.24 -896786293#7 -896786293#6 -896786293#5 -896786293#5.20 -896786293#4 -909024240 -909024240.17 -909024240.35 -909024241#0 -909024241#0.4 -896786257#5 909024248 909024248.50 -45378665#3 -45378665#3.29 -45378665#3.50 -45378665#2 -45378665#2.36 -45378665#1 909024239#0 -909024236#1 -909024236#1.9 -909024236#1.78 -896786335#13 -951983587#9 896786303#2 896786303#2.23 896786303#3 896786301 896786301.58 896786303#6 896786303#6.29 896786302#1 951983592#0 951983592#0.146 951983592#0.152 951983592#0.157 951983592#1 951983592#3 951983592#3.4 951983592#3.8 951983592#3.24 951983592#3.30 -951988579 951988578#1 -951988576#1 -951988576#0 896786308#0 896786308#0.23 896786307#0 896786307#0.31 896786307#1 896786307#2 896786307#2.26 896892992 896892992.16 -896892998#0 -896892998#0.14 -896892994#0 -896786310#1 -896786310#1.7 -896786310#1.40 -896786310#1.58 896892995#0 896892995#1 896892995#1.18 -877388728#7 -877388728#5 -877388728#5.9 -877388728#5.30 -877388728#4 -877388728#4.18 -877388728#3 -877388728#3.29 896893023#0 896893023#0.34 896893021#13 896893021#13.24 896893021#13.85 896893019#2 896893019#2.13 896893019#2.34 896893019#3 896786297#11 951998773 951998773.36 951998773.40 951998773.44 951998773.49 -896893024#1 -896893024#0 -951988586#0 -951988586#0.10 -896893021#11 -896893021#10 -896893021#9 -896893021#9.73 -952213570#2 -952213570#1 -952213570#0 -952213570#0.40 -952248230#2 -951988588#1 -951988617 -951988590#5 951988589 951988589.27 951988589.31 951988589.35 951988589.38 -952248230#0 -951988592#1 -951988592#1.72 -951988592#1.76 -951988592#1.81 -951988592#1.85 -951988592#1.88 -951988592#1.92 -951988592#1.145 -951988592#1.154 -951988592#1.163 -951988591#1 -951988591#1.3 -951988591#0 -896786309#8 -896786309#8.9 -951930617#12 -951983615 -951983615.63 -951983615.77 896786310#4 896786310#4.16 -951983614 -951983614.49 -951983614.59 -951983614.67 -951930617#10 -951930617#10.5 -951930617#10.15 -951983592#7 -951983609#1 -951983609#1.19 -951983609#1.25 -951983609#1.34 -951983611#0 -951988595#2 -951988595#1 -951988595#1.5 -951988595#1.15 951988598#0 951988598#0.11 951988598#0.14 951988598#0.18 951988598#0.23 951988598#1 896786309#14 -951988600#1 -951988607#3 -951935274#5 -951935274#5.28 -951935274#5.36 -951935274#5.46 -951935274#5.82 -951935274#5.91 -951935274#5.100 -951935274#4 -951935274#4.3 -951935274#4.24 -951935274#4.29 -951935274#4.35 -951935274#4.66 -951930627#1 -951930627#0 951988606#0 951988606#1 951988605#1 -951988603#0 896786309#20 -951930622 951930617#4 951930617#5 951930617#6 -951930618#2 -951930618#1 -951930619 -877389028#0 -877389028#0.33 896786310#9 896786310#9.40 896786310#9.54 896786310#9.61 -951983616#2 -951983616#1 -951983619 -951983619.37 -951983619.41 -951983619.43 -951983619.47 951983620#1 951983587#6 896786304#7 896786304#7.11 -951983589#0 -951983588#0 -951983586#0 -896786303#0 -896786311#12 -896786311#12.40 -951976011#1 951976010#1 -896786335#9 -896786321#3 -896786321#3.6 -896786321#3.61 -896786320#3 -896786320#3.5 951976009#0 951976009#1 -896786335#7 -896786335#6 896786319#0 896786319#0.19 896786319#1 896786319#1.7 896786319#2 896786319#4 -896786317#1 -896786317#1.28 -896786317#0 896786316#3 -896786315#0 -877396172#1 -877396172#1.57 -877396172#0 -877396172#0.15 896786313#3 896786313#3.51 896786313#3.88 896786313#3.110 896786313#3.151 896786313#3.164 896786313#3.186 896786313#3.223 896786313#3.237 896786313#3.246 896786313#3.253 -896786312#1 -896786312#1.17 -896786312#1.24 -896786312#0 -896786312#0.11 -896786312#0.35 -896786312#0.60 -896786312#0.135 -896786311#2 -896786311#1 -896786311#1.19 -896786311#0 -896786311#0.35 951983599 -951935291#3 -951935291#3.17 951930682#0 951930682#1 -951930681#1 -951930681#1.3 -951930681#1.6 -951930681#1.9 -951930681#1.12 951935254#2 -951983613#0 951930681#3 951930681#3.13 951983606#1 951930680#2 951930680#2.22 951930680#3 951930680#3.7 951930680#4 877396480#1 877396480#2 877396480#3 951935280 951935280.26 951935280.31 951935280.37 951935255#1 951935255#1.24 951935255#1.31 951935255#2 951935255#2.6 877396480#5 877396480#5.5 877396480#5.10 877396480#6 877396480#7 877396480#7.18 877396480#8 877396480#8.7 -877389028#15 951935258 -951935257#1 -951935291#1 877389028#11 877389028#11.9 -951935289#1 -951935289#0 951935286#1 -951935287 -951930661#3 -951930661#3.14 -951930661#2 -951930661#0 877395784#7 877395784#8 877395784#8.44 877395784#9 951946815#0 -951946826 951946825#1 -951946816#4 -951946816#2 951946827 951946827.47 951946827.51 951946827.55 951946827.59 -951946789#2 -951946787#6 -951946787#4 -951946787#3 -951946787#2 951946830 -951946829#0 -896786337#18 -896786337#17 -896786337#17.3 -951946832 -951946815#5 951946816#0 951946810#0 951946810#1 951946810#2 -896786337#14 -896786337#14.40 -896786337#14.111 -952365020 -952365021 -951878231#2 -951878231#1 -951878231#1.26 -951868611#0 -951951643#4 -951951643#3 -951951643#2 -951951643#1 -951951643#0 951878263#8 951878230#4 -951891772#4 -951891772#3 -951891772#2 -951891774 951891771#2 951878270#2 951878270#3 951878270#4 -951887656#2 -951887656#1 -951887656#0 -951887655#3 -951887654#0 700825962#4 700825962#4.25 700825962#4.106 700825962#4.130 -700825961#7 -700825961#7.10 -700825961#7.37 951887664#0 951887664#1 -904196454#4 -904196454#2 -951878272#5 -951878272#4 -951878272#2 951887654#2 951887654#3 -951891764#1 -951891764#0 -951887660#0 877401978#1 951878266#0"/>
</vehicle>
<vehicle id = "veh9" type= "veh_passenger" depart="10815" >
<route edges =" 951370989 951370989.40 951370989.47 951370989.53 951370989.56 951370989.62 951370989.64 951370989.67 -902433320#1 -902433320#0 902433321#2 -45342799#20 -45342797#4 -951368600#1 -951368603#1 -951368603#0 -45342835#1 -45342835#0 -45342797#0 45342834#2 45342809#3 45342798#3 -45342837 -951441769 951370985#1 45342809#7 -45342814#5 -45342814#4 -45342803#5 -44740885#8 -45342841 -45342802#1 -671399056 -671399058#1 671399054#0 671399054#1 671399046#3 671399046#3.56 -44740885#5 -44740885#5.33 -44740885#4 -44740885#3 -44740901#6 -44740901#5 -44740901#4 -44740901#3 44740957#6 951417473 44740896#1 -951417474 44740957#8 -44740895#3 -44740895#2 -44740895#2.69 44740972#0 951417475#0 951417475#1 -671399049#1 -671399049#0 -671399051#0 -44740942#1 -44740901#0 -313316089 -951438761 -44740929#5 -951438760#1 -672215964 672215965#1 -44740922#0 -313316091#16 45378639#0 45378639#0.48 -45378689#5 -45378689#4 -45378690#1 -45378691 -45378682#0 -45378682#0.30 -44740946#1 -44740946#0 44740945#1 -44739167#13 -44739167#12 -44739167#11 -44740926#5 -44740926#4 -44740926#3 -44740926#2 -44740926#1 44740923#2 44740927#17 44740922#5 44740922#5.74 44740922#6 -44740989#1 -44740923#0 -44740930#9 -44740930#8 -44739167#9 102277232#2 102277232#2.138 44739163#14 44740930#6 44740928#0 44740928#0.19 44740928#1 44740928#2 -44740927#12 -44740927#11 -951358801 44740953#6 44740952 44740951#1 -44740949#0 44739167#15 44739167#15.29 -313316091#6 45378684#0 45378684#0.22 45378684#0.71 45378684#1 45378655#3 -45378685#2 -45378685#1 -45378685#0 -45378685#0.42 -313316091#4 -313316091#4.67 -44739163#20 -44740919#1 -44740919#0 44740920#8 -313316091#0 -313316091#0.27 -313316091#0.72 -313316091#0.80 -971495601#9 -971495601#9.28 44740934#0 -668599375#2 -668599375#2.17 -668599375#1 -668599375#1.9 -668599375#0 44740916#11 44740916#12 44740916#13 909019768#0 909019768#0.14 909019768#0.25 909019768#1 909019767#0 909019767#0.42 909019767#1 909019767#1.24 909019767#1.35 -971495601#5 -971495601#3 -951346855#1 -951346855#1.22 -951346855#1.42 -951346855#1.57 -951346854 -951346854.30 -951346854.33 -951346854.34 -951346854.36 -951346854.39 -951346854.40 -951346854.42 -951346854.50 -951346854.52 -951346854.54 -951346854.56 -951346854.59 -951346854.61 -951346854.62 -951346854.64 -951346854.65 -951346854.67 -951346854.69 -951346854.101 908560901#22 908560901#22.77 908560901#22.89 -971495601#0 -313316086 -44739144#26 -44739144#24 -44739144#22 -896786294#12 -896786294#12.19 -896786294#12.25 -896786294#12.30 -896786294#12.36 -896786294#12.41 -909024262#1 -909024262#1.12 -909024262#0 -702673217#0 -44739144#18 -44739144#16 -44739144#15 -44739144#13 -44739144#12 -44739144#11 -909778559#1 672815156#0 44740912#7 44739144#9 -904371478#2 -904371478#2.24 904371477 904371477.56 877396860#21 -952002225#1 -909024265#2 -909024265#2.29 909024264#0 -909024263 -909024263.30 -909024265#0 896786289#1 896786289#1.39 896786289#2 896786289#3 -896786294#8 -909024279#5 -909024279#5.21 -909024280#1 -909024280#1.18 -909024278#0 -909024278#0.26 -909024278#0.99 -909024279#0 -909024279#0.11 896786295#9 896786295#10 896786295#12 896786295#12.9 896786295#13 -896786294#5 -896786294#5.6 -896786294#5.10 -896786294#5.13 -896786294#5.16 -896786294#5.19 -896786294#5.22 -896786294#4 -896786294#3 -896786294#3.26 -896786294#2 -896786294#2.7 -896786294#0 -896786294#0.13 877398366#17 877398366#17.93 -909024294#1 909024293#0 909024293#1 909024293#1.20 909024293#1.34 909024293#2 909024293#3 896786290#5 896786277#0 896786278#0 896786278#0.39 -896786279#5 -896786279#4 -896786279#4.27 -896786279#3 -896786279#3.22 -896786269#4 896786267#1 896786267#1.28 896786267#2 877398366#14 877398366#14.18 -904286380#3 -904286380#3.41 -904286380#2 877396860#13 -896786290#2 904286383#2 -904286380#0 -951992355 -904286385#10 904371488#0 904371488#0.36 904371488#1 -904371468 -904371468.19 -904371468.25 -904371468.28 -904371468.32 -904371468.43 904286385#15 904286385#15.27 -904371469 -904371471 -904371472#0 -904371482#1 -904371482#1.50 -904371482#1.65 -904371482#0 -904371482#0.24 -904371482#0.73 671191683#6 671191683#7 904286387#0 904286387#0.24 951973452#1 951973452#2 951973452#3 -904371488#8 -904371488#8.6 -904371488#8.17 -904371488#7 -904371488#7.3 -904371488#7.6 951992361 -951973453#1 -951973453#0 904286387#2 904286387#2.18 904286387#3 904286387#3.5 904286387#3.12 671191683#4 -904371473#4 -904286388#0 904286386#7 951973455 951973456#1 -951973451#0 -671191683#0 -671191683#0.3 -671191683#0.13 -671191683#0.21 904371486#0 904371486#1 904371487#0 904371487#1 904371487#1.29 -904286373#4 -904286373#3 -904286373#3.24 -904286373#3.27 904286371 -671191680#6 -671191680#5 -951973470#1 -951973470#1.3 -951973470#1.6 -951973470#1.10 -951973470#0 904371490#4 904371489#0 671191682#0 671191682#1 -951973462#2 -951973460#1 -951973460#0 904371493#2 904371493#3 -671191681#2 -671191681#1 -671191681#0 904286385#1 904371493#5 951973474#0 951973474#1 -951973473#0 951973472#1 904371492#3 951973476#0 951973476#1 951973471#3 -904371456#2 -904371456#2.22 -951973471#1 -951973471#0 -671191680#1 -671191680#1.13 -671191680#0 -671191680#0.38 -671191680#0.44 -671191680#0.48 -671191680#0.53 -671191680#0.58 -671191680#0.63 -671191680#0.76 -896786327#0 -877395784#21 -877395784#21.14 -951951638#10 -951951638#10.18 951973434#1 951951639#3 951951639#4 -951973432#1 -951951638#7 -951951638#5 -951973430#0 -952002224#4 -952002224#4.27 951946798#0 -951951638#3 952000398 951951639#13 -951946794#0 951946792#1 896786337#8 896786337#8.8 896786337#10 896786337#10.21 -951887700#20 671756019#0 671756019#1 671756019#2 671756019#2.43 671756019#3 -951961235 -951961234#0 -951887700#16 -951887700#15 -951887700#14 -951887679#2 -951887679#1 -951887679#1.32 -951887679#1.35 -951887679#1.38 -951887679#1.41 -951887679#0 951887678#1 951887678#2 951887700#10 951887700#11 951961240#0 951961240#0.54 951961240#0.57 951961240#0.59 951961240#0.62 -951961245 951891772#0 -951891773 -951891771#0"/>
</vehicle>
<vehicle id = "veh10" type= "veh_passenger" depart="10815" >
<route edges =" 45342801#5 45342801#5.32 902433317#3 902433317#4 951368598#0 -951381446#0 951368595#1 951368595#1.17 951368595#1.34 902433317#8 902433317#8.29 951368593#1 972507120#2 45342812#0 -951366779#1 -951366781#2 -951366781#2.31 -951369747#1 951366780#0 951366780#1 951366780#1.16 951366780#1.54 -951421966 -951369743#0 -951369743#0.6 951369744#2 951369744#2.22 951369744#2.31 -951369736 -951369736.21 -951369736.22 -951369736.24 -951369736.25 -951369736.26 -951369736.36 -951369736.39 -951369736.41 951369745#0 -951381440 -951369737#0 -951369737#0.5 -951369737#0.11 -951369746#1 -951369746#1.3 -951369746#1.9 -951369746#1.18 -951369746#1.26 -951369746#1.35 -951369741#4 -951369741#2 -951369741#2.8 -951369741#2.11 -951369741#2.13 -951369741#2.16 -951369741#2.19 -951369741#2.22 -951369741#1 -951369741#1.20 -951369741#1.25 -951369741#1.30 45344273#27 45344273#27.17 -897252875#3 -897252874 897252876#1 897252876#1.54 -45344336#9 -45344336#9.10 -45344336#9.61 -45344336#9.126 -45344336#9.147 -950455054 -45344320#5 -45344320#5.17 -897172091#13 -950400189 -950235691#2 -950235691#2.50 -950235691#1 -950235691#0 -950235691#0.4 950235690#1 -45344335#3 950400190 -897172091#9 -897172091#8 -897172091#6 -897172091#5 -897172091#4 -897172091#3 -897172091#1 -897172091#0 -45344294#6 -45344294#6.9 -45344294#6.25 -45344294#5 -45344294#5.7 -45344291#4 -45344291#4.36 -951370958 45344288#1 45344288#1.10 45344288#1.64 45344288#1.123 45344288#1.180 951370977 45344292#1 45344292#3 45344292#4 700249213#5 700249213#5.63 -897252869#3 -897252868#4 -897252868#3 -897252868#3.15 -897252868#2 -897252868#1 -897252868#1.11 -897252868#1.30 -897252868#0 -897252868#0.12 -897252868#0.33 -897252868#0.71 -897252863#5 -897252863#3 -897252863#2 -897252863#0 -897252863#0.7 -897252863#0.15 45344290#4 45344290#5 45344290#5.39 45344290#5.109 45344294#1 897252857 897252858#2 897252858#3 -45344286#12 -45344286#11 -897252856 -897252856.27 -897252856.31 -897252856.36 -897252856.38 -897252856.42 -897252856.46 -896892971#0 -896892971#0.14 -896892971#0.28 -896892971#0.54 -896892971#0.88 -45344286#8 -951384608#1 -951384608#1.59 -951384608#1.63 -951384608#1.67 -951384608#1.69 -951384608#1.73 -951384608#0 -951384608#0.43 -951384608#0.47 -951384608#0.50 -951384608#0.52 -702632123#1 -702632123#1.4 -951404495 -951384610#0 -45344272#11 -45344272#11.24 -45344272#10 -45344272#10.10 45344304#0 -897252851 897252852#1 897252852#1.30 897252850#0 -950389249#4 -950389249#4.31 -950389249#4.34 -950389249#3 -950389249#3.3 -950389249#3.22 -950389249#3.25 -950389249#2 -950389249#2.2 -950389245 -950389245.21 -950389245.31 -950389245.37 -950389245.42 -45344272#6 -45344272#5 -45344272#4 -45344272#3 -45344272#3.16 -45344272#3.30 -45344272#3.79 -45344336#3 -45344336#2 950553578#1 950553577#0 950553577#0.25 950553577#1 950553577#1.2 950553577#1.9 950553577#1.16 950553577#1.22 950553577#1.27 950553577#1.34 950553577#1.44 950553577#2 -45344282#1 -950641816#13 -950641816#13.116 -950238188#4 -950238188#3 -950238188#2 950238186#0 -950241847#3 -950241847#2 -902433322#1 -902433322#1.57 -902433322#0 -902433322#0.69 -45344281#2 950241866#9 -45344284#5 -45344284#4 -45344284#3 -45344284#2 -45344284#1 -45344284#0 45344280#13 45344280#14 45344280#14.13 45344280#15 45344283#5 45344283#6 45344283#6.72 45344283#6.89 45344283#6.131 950233989#0 950553582#0 950553582#0.54 950553581#0 950553581#0.7 950553581#0.14 -700278833#5 -700278833#5.31 -700278833#5.45 950318421#0 950318421#0.10 950318421#0.18 950318421#0.29 950318421#0.39 950318421#1 -950233988#1 -950233988#1.32 45344283#9 45344283#10 45344283#10.15 45344283#10.46 45344283#10.69 45344283#10.88 45344283#10.150 45344283#10.196 45344283#10.260 45344283#10.377 45344283#10.468 45344283#10.514 670655885 670655885.12 896892975 971495602#12 971495602#12.26 971495602#12.77 951442813 951442812#0 -896786335#50 -896786335#49 -896786335#48 -896786335#48.15 -896786335#47 -896786335#46 -896786335#44 -896786335#44.9 -896786335#44.71 -896786335#43 -896786335#42 -896786335#42.22 896892983#0 896892983#0.10 896892983#1 896892983#1.19 -951421976 896892982#2 -896786335#39 -896786335#39.27 -896786335#37 -896786335#36 -896786335#34 -896786335#33 -951354773#3 -951354773#3.20 -951354773#3.23 -951354773#3.26 -951354773#3.28 -951354773#3.30 -951354773#3.32 -951354773#3.34 -951354773#3.38 -951354773#3.40 -951354773#3.43 -951354773#3.45 -951354773#2 -951354773#2.2 -951354773#2.27 -951354773#2.50 -951354773#2.74 -951354773#2.80 -951355289#1 -951355289#0 -896893028#1 -896893028#1.14 896893014#0 896893014#0.49 896893015#1 896893015#1.26 896893015#2 896893015#3 -896893018#0 -877388728#13 -877388728#13.55 -877388728#11 -877388728#10 -877388728#10.145 -896892998#4 -896892998#2 -896892998#2.10 -896892998#1 -896892992 -896892992.49 -896786305#1 -896786305#1.42 896786308#2 896786308#2.17 896786308#3 896786308#3.37 896893000 896893000.62 896893000.89 896786307#7 896786307#7.3 896786307#9 896786307#9.1 896786307#9.3 896786307#9.8 896786307#9.58 -951995485 896893004#2 896893004#3 896893004#3.24 896893004#4 896893004#5 -896786335#23 -896786335#23.44 -896786335#22 -896786335#21 -896786335#21.41 -896893011#1 -896893012#6 -896893012#6.12 -896893012#5 -896893012#5.11 -896893012#4 -896893007#1 -896893007#1.18 -896893008#1 -896893008#0 896786300#2 896786300#2.40 896786300#2.70 896786300#3 896786300#3.17 -896786335#14 -896786335#14.27 -896786335#13 -951983587#9 -896786303#1 -896786303#1.61 951983586#0 951983586#1 -877398739#3 -951983590 951983591 -951983587#0 -951983587#0.39 -951983587#0.45 -951983587#0.51 -951983587#0.56 951976010#0 -951976011#0 -896786321#1 -896786321#1.3 -951976012 -951976012.34 -951976012.37 -951976012.40 -951976012.44 896786321#3 896786321#3.48 896786321#3.103 -896786335#8 -896786335#8.39 -951976009#1 -951976006#2 -951976006#1 -951976008 -896786319#1 -896786319#1.31 -896786318 -896786318.47 -896786315#4 -896786315#2 896786320#0 896786320#1 951930673#0 951930673#1 951930674 951930674.32 951930674.37 951930674.40 951930674.44 951930673#5 -896786311#6 -896786311#6.24 951983602 951930672#1 -951930673#3 -951930673#3.17 -951930676 -951930676.40 -951930676.43 -951930676.45 -951930676.48 -951930671#1 -951930671#0 -951930671#0.25 -951930671#0.32 -951930671#0.42 -877396172#3 -877396172#1 -877396172#1.57 951930664#5 -896786316#1 -896786316#1.33 -896786316#0 -896786319#5 -896786319#5.26 896786317#2 896786317#2.28 896786317#3 896786317#3.44 -896786335#3 -896786335#3.10 -896786335#2 -896786335#1 -896786335#1.14 -896786335#0 -951946803#2 -951946803#1 -951946803#1.55 -951946803#1.59 -951946803#1.61 -951946803#1.64 951946795#1 951946795#2 951946795#3 951946795#4 951946795#6 951946795#7 951946795#9 951946795#10 951946795#11 951946795#11.34 951946795#11.40 951946795#11.45 -951887683 -951887684 -951887682#6 -951887682#5 -951887682#4 951887687#0 951887687#0.26 951887688#0 951887689 951961234#0 951961235 -671756019#3 -671756019#2 -671756019#2.4 -671756019#1 -951961251#1 951961247#0 951961247#1 951961247#1.3 951961249#0 951961249#1 951961249#1.17 951961249#1.19 951961249#1.21 951961249#1.24 -951961255 -951961255.19 -951961255.22 -951961255.25 -951961255.27 951961248#1 -876509484#6 -876509484#6.3 -876509484#6.8 -876509484#6.12 -876509484#6.15 -876509484#5 -951878267#1 -951878267#0 -951878267#0.26 -951878267#0.29 -951878267#0.32 -951878267#0.34 951878264#2 951878263#4 -951878269#15 -951891772#2 -951891772#1 -951891772#0 -951878266#2 -951878266#1 -951878266#1.39 -951878266#1.47"/>
</vehicle>
<vehicle id = "veh11" type= "veh_passenger" depart="10815" >
<route edges =" -45342801#4 45342799#23 951370988 951370988.6 951370988.11 951370988.16 902433317#6 902433317#7 -951368596 45342799#27 45342799#27.15 45342799#27.20 45342799#27.25 45342799#27.36 972507120#0 -903341083#3 -903341083#2 -903341083#1 -951368605#2 -951368605#1 -951368605#0 45342811#1 45342811#2 45342811#2.66 -45344273#22 -45344273#22.6 -45344273#22.18 -45344273#22.35 -45344273#21 -45344273#21.28 -951441770 45342810#5 -973399407#2 -45342830#1 44740885#16 44740885#17 -45344273#14 -45344273#14.32 -45344273#13 -45344273#12 -45344273#11 -45344273#10 -45344273#10.42 -45344273#9 -45344273#8 -45344273#8.10 -45344273#7 -45344273#7.22 -45344273#6 -45344273#6.40 -45344273#6.59 -45344273#5 -45344273#5.6 -45344273#5.15 -45344273#4 -45344273#4.8 -45344273#4.37 -45344273#3 -45344273#3.6 -45344273#3.14 -45344273#3.31 -45344273#3.48 -45344273#2 -45344273#2.6 -45344273#2.24 -951404493 -951404493.17 -951404493.21 -951404493.24 -951404493.26 -951404493.29 -951404493.32 -951404493.38 -951404493.57 -951404493.66 -951404493.74 -700249212#0 700249213#10 700249213#11 -45342808#9 -700249212#3 -951417468 -951417468.27 -951417468.30 -951417468.32 -951417468.34 -45342808#7 -45342808#7.16 -45344273#0 -897252881 -45378637#10 -45378637#9 -951404484#10 -951404483#1 -951404474#1 951404473 -951404484#6 -951404484#5 951404481 45378639#10 45378639#11 45378639#12 45378639#12.8 -45344310#1 -45344310#0 -45344310#0.10 -45344310#0.18 -45344310#0.30 -45344310#0.41 -45344310#0.52 971495602#8 971495602#8.24 971495602#8.86 -313316104#6 -313316104#5 -313316104#5.12 -313316104#5.27 -313316104#5.46 -313316104#4 -313316104#4.4 -313316104#4.18 -313316104#4.31 -313316104#4.41 -313316104#4.56 -313316104#3 -313316104#2 -313316104#2.13 -313316104#2.35 -313316104#2.44 -313316104#1 -313316104#0 -313316082 -45378649#12 896786247#0 896786247#0.38 908869233 -908869244#0 -908869250#1 -908869250#0 -908869250#0.11 -908869250#0.41 -45378649#10 -45378649#10.20 -45378649#9 -45378649#9.7 -45378649#7 -45378649#7.4 908869241#0 908869241#0.15 908869241#0.77 -908869239 -908869239.8 -908869239.11 -908869239.13 -908869239.15 -908869239.18 -45378649#3 -45378649#3.8 -45378649#2 -45378649#2.8 951354763#0 -951354765#0 -896786265#6 -896786265#6.26 -896786265#5 -896786265#4 -896786265#4.59 -896786265#2 -896786265#0 896786266#11 896786266#11.13 909024250#0 909024250#1 909024250#2 -909024251 -909024251.41 -896786293#5 -896786293#5.20 -896786293#4 -896786293#3 -896786293#3.1 -45378665#2 -45378665#2.36 -45378665#1 909024239#0 909024239#1 909024239#1.17 909024239#2 909024239#2.40 877398366#3 951995475#4 904371460#5 877396860#4 877396860#6 877396860#7 877396860#8 -904371462#0 904371463#1 904371463#1.15 904286381#0 -904286374 904286375#3 -671191680#9 -904371467#2 -904371467#2.49 -904371467#2.113 904371464 896786325#1 -896786328#1 -896786328#0 -896786328#0.177 -877395784#20 -877395784#19 -877395784#17 -877395784#17.8 -877395784#17.24 896786335#0 951976000#0 -951975999 -877395784#14 -877395784#14.13 951946817#0 -951946816#10 -951946816#9 -951946822 951946821#2 -951946820#0 951946819#1 -951946818#2 -951946806#8 951951629 951946833#11 951946833#11.92 951946833#11.95 951946833#11.98 951946833#11.101 -951946806#0 -952365020 -952365021 -951878231#2 -951951643#6 951951644#0 -951951642#4 -951951642#3 -951951642#3.15 -951951642#3.18 -951951642#3.20 -951951642#3.23 -951951642#3.36 -951951642#3.39 -951951642#3.41 -951951642#3.43 -951951642#2 -876509484#2 -951951643#1 -951951643#0 951878263#8 951878230#4 -951891772#4 -951961237 -951891766#2 -951891766#2.2 -951891766#2.6 -951891766#2.10 -951891766#2.15 -951891767 -951878269#7 -951891764#4 -951887656#2 951891765#1 951891765#2 951891765#3 -951887660#3 -951887662 -951887661#1 -951887661#0 904196454#4 951887664#2 951887663#1 951887663#2 951887661#3 951878266#0"/>
</vehicle>
<vehicle id = "veh12" type= "veh_passenger" depart="14420" >
[...]
</vehicle>
<vehicle id = "veh18" type= "veh_passenger" depart="21630" >
<route edges =" 951370989 951370989.40 951370989.47 951370989.53 951370989.56 951370989.62 951370989.64 951370989.67 -902433320#1 -902433320#0 902433321#2 45342799#21 45342809#0 951368600#0 951368600#1 -45342797#3 -45342797#2 -45342797#1 -45342797#0 45342834#2 45342809#3 45342798#3 45342798#4 45342798#5 45342813#0 45342813#1 -951370984#1 -45342816#0 45342817#1 -45342803#7 -45342803#6 45342814#4 45342814#5 45342809#8 45342809#9 -45342821#1 -45342821#1.44 -45342822#2 -45342820#1 -45342804#3 -45342804#2 45342831#0 951421967 951417480#1 -951417482#1 -951417481 -45342805#2 951417479 -45342809#15 -45342809#14 45342823#0 -45342833#4 -45342833#3 -45342833#2 -45342833#1 -45342833#0 -897252872 -897252872.99 -45342808#2 -45342808#1 -45342808#1.101 -45342808#0 -45342808#0.42 671399046#0 671399046#0.17 671399046#0.59 671399046#1 671399046#2 671399046#2.23 -671399054#1 -671399054#0 671399058#1 671399058#2 44740901#4 44740901#5 -44740891#4 974189220#1 -44740896#2 -44740896#1 -951417473 -44740957#6 -44740957#5 -671399051#1 -671399051#0 -44740942#1 -44740942#0 974189220#5 902433296 44740967#0 44740929#7 44740929#8 -44740960#1 -44740960#0 -44740930#13 -44740930#12 44740929#0 -44740967#3 -44740967#2 -951438763#1 -951438763#1.52 -951438762 44740929#2 44740929#3 -951438759 -44740922#1 -44740922#0 -313316091#16 45378639#0 45378639#0.48 45378639#1 45378639#1.38 45378639#2 45378639#2.25 45378639#2.39 45378639#3 951439124 951439124.12 951439124.17 951439124.21 951439124.25 951439125#1 -45378641#0 -45378658#1 -45378686#1 45378687#0 -45378688#1 -45378688#0 45378689#2 -45378690#1 -45378690#0 -45378690#0.32 -313316091#11 -313316091#10 -313316091#10.31 -313316091#8 -313316091#8.29 45378683#0 45378683#0.76 45378683#1 45378655#2 45378655#3 45378655#4 -45378656#1 -45378656#0 -45378656#0.43 -45378656#0.46 -45378656#0.48 -45378656#0.49 -45378656#0.51 -45378656#0.58 -45378656#0.60 -45378656#0.62 -45378656#0.64 45378654#1 45378657#4 -44739163#20 -44739163#19 -44740918#2 -44740918#1 44740931#0 -44740919#0 -951358792 -951358792.26 -951358792.42 -951358792.53 -951358792.66 896892969#18 45340579#18 45340579#18.164 45340579#19 45340579#19.12 45340579#19.84 909019791#0 -909019790#1 -909019789#2 -909019789#1 44740916#7 44740916#8 -668599377#1 -668599377#1.15 -668599377#0 -668599377#0.24 -44740934#3 -44740934#3.33 -44740934#2 -44740934#1 -44740934#1.2 -668599375#2 -668599375#2.17 -668599375#1 -668599375#1.9 -668599375#0 -909019783 -909019783.98 -45378660#1 -45378660#1.21 -45378660#1.52 -45378660#1.88 -45378660#1.126 -908560900#3 -908560900#2 -908560900#1 -908560901#21 -908560901#21.18 -908560901#21.74 -908560901#20 -908560901#20.10 -908560901#20.61 -908560901#20.115 -908560901#19 -908560901#19.77 -908560901#19.104 -896786299#0 -896786298 -45378665#19 896786295#0 896786295#0.19 951347815 951347815.27 951347815.37 951347815.47 951347815.52 951347815.56 951347815.58 951347815.61 951347815.65 896786296#13 896786296#13.14 896786296#14 896786296#14.11 896786296#15 896786296#15.3 896786296#16 896786296#17 896786296#17.29 896786296#17.96 896786296#17.102 896786296#18 896786296#18.4 896786296#18.17 -44739144#24 -44739144#22 -896786294#12 -896786294#12.19 -896786294#12.25 -896786294#12.30 -896786294#12.36 -896786294#12.41 -896786294#11 -896786294#11.13 -896786294#10 -896786294#8 -909024279#5 -909024279#5.21 -909024279#4 -909024279#4.31 -909024279#3 -909024279#2 -909024279#2.12 -909024276#2 951346848#0 951346848#0.15 951346848#0.24 951346848#0.33 951346848#0.42 -909024260 -909024260.37 -909024260.93 -909024260.137 -896786295#6 -896786295#6.9 -896786295#5 909024259#0 951347814#0 951347814#0.11 951347814#0.14 951347814#1 951347814#1.5 951347814#1.9 -896786295#3 -896786295#3.13 951346845 951346845.67 951346845.72 951346845.75 951346845.78 951346845.83 951346845.113 951346845.132 951346845.134 951346845.135 951346845.137 951346845.140 951346845.164 951346845.165 951346845.166 951346845.168 951346845.169 951346845.171 -45378665#17 -45378665#17.13 -45378665#17.39 -45378665#17.57 -45378665#16 -45378665#14 -45378665#14.14 -45378665#14.36 -951358818#1 -951358818#1.36 -951358818#1.38 -951358818#1.40 -951358818#1.42 -951358818#1.44 -951358818#1.64 -951358818#1.68 -951358818#1.71 -951358818#1.73 -951358818#1.80 -951358818#1.82 -951358818#1.84 -951358818#1.86 -951358818#1.89 -951358818#1.92 -951358818#1.95 -951358818#1.108 -951358818#1.114 -951358818#1.118 -951358818#0 -951358818#0.23 -951358818#0.25 -951358818#0.27 -951358818#0.29 -951358818#0.31 -951358818#0.32 -951358818#0.34 -876614861#4 -951433465 -896786283#3 -896786283#3.11 -896786283#2 909024289#5 909024284 909024284.27 896786269#1 896786269#1.22 896786269#2 896786269#3 -896786267#0 -896786267#0.60 -896786267#0.197 -896786267#0.219 -896786267#0.239 -896786267#0.242 -896786267#0.244 -896786267#0.246 -896786267#0.249 896786282#2 896786282#2.23 896786282#2.28 896786282#2.32 896786282#3 896786282#3.17 896786282#3.44 896786281#0 896786280#1 -896786275#5 -896786275#4 -896786275#3 -896786271#0 -896786272#0 -896786279#0 -896786279#0.19 909024281 909024281.8 896786270#1 -896786269#7 -896786269#6 -896786269#6.9 -896786269#6.56 896786268#0 896786268#1 896786268#2 896786268#2.6 896786268#3 896786295#13 -896786294#5 -896786294#5.6 -896786294#5.10 -896786294#5.13 -896786294#5.16 -896786294#5.19 -896786294#5.22 -896786294#4 -896786294#3 -896786294#3.26 951992347 -896786277#2 -896786276 -896786276.82 -702673217#5 -702673217#4 -702673217#3 -896786289#2 877398366#19 -909024264#1 -909024263 -909024263.30 -909024265#0 -896786289#0 -896786289#0.7 -877396860#18 -877396860#18.14 909024294#0 909024294#0.52 909024293#0 909024293#1 909024293#1.20 909024293#1.34 904286386#1 904286386#1.27 -877396860#15 -904286384#2 -904286384#2.34 -904286384#1 -904286384#1.25 -904286384#0 -904286385#13 -904286385#13.24 -904286385#12 951992355 -904286381#4 -904286381#3 -904286381#3.6 -904286381#3.20 904286379 904286383#4 -904286382#0 -904286374 -904286375#2 -904286375#2.19 -904286375#1 -904286372#0 904286373#4 904286385#8 -951992348 904371486#1 904371486#2 904371486#4 904371486#4.3 -951973462#3 -951973462#3.3 -951973462#3.5 -951973462#3.8 -951973462#3.10 -951973462#3.15 -951973462#3.18 -951973462#3.21 -951973462#3.25 -951973462#3.31 -951973462#3.34 -951973462#3.38 -951973462#3.47 -951973462#3.53 -951973462#3.58 -951973462#3.69 -951973462#3.74 -951973462#3.79 671191682#2 904371493#3 671191681#3 671191681#3.66 -671191682#0 904371489#1 904371489#1.4 904371489#1.8 904371489#1.11 904371489#1.34 951973468#0 951973468#1 -951973469 904371490#2 951973470#0 -951973471#4 -904371456#2 -904371456#2.22 -904371456#1 -904371456#0 -904371456#0.17 -671191680#0 -671191680#0.38 -671191680#0.44 -671191680#0.48 -671191680#0.53 -671191680#0.58 -671191680#0.63 -671191680#0.76 -896786327#0 877395784#22 877395784#22.56 877395784#23 -952002224#7 -952002224#7.17 -952002224#7.71 -951973426#2 951951638#9 951973434#1 951951639#3 951951639#4 -951973432#1 -951951638#7 -951951638#5 951973430#1 951951639#8 951951639#9 -951946798#1 -951946798#0 -952002224#3 -952002224#3.30 -952002224#3.48 -952002224#3.80 904286410#0 904286410#0.33 904286409#0 951874860#2 -904286402#0 -904286410#2 -904286411#3 -904286411#2 -904286411#2.14 -951874848#1 -951874848#0 -952002224#1 896786337#4 896786337#5 896786337#5.11 896786337#6 896786337#7 896786337#8 896786337#8.8 896786337#10 896786337#10.21 -951887700#20 -951887700#19 -951887700#18 -951887700#17 -951887700#17.17 -951887700#16 -951887700#15 -951887700#14 -951961240#3 -951961240#1 -951961245 951891772#0 951891772#1 -951891774 -951891771#1 -951891771#0"/>
</vehicle>
<vehicle id = "veh19" type= "veh_passenger" depart="21630" >
<route edges =" 45342801#5 45342801#5.32 902433317#3 902433317#4 902433317#6 902433317#7 902433317#8 902433317#8.29 951368593#1 972507120#2 972507120#3 -951369746#4 -951369746#4.24 -951369746#4.27 -951369746#4.29 951369745#0 -951381440 951369737#2 951369737#2.6 951369737#2.11 951369737#2.19 951369737#2.29 951369737#2.37 951369737#2.48 -951369740#1 -951369740#1.11 -951369740#1.14 -951369740#1.18 -951369740#1.22 -951369740#1.28 -951369740#1.32 -951369740#1.36 -951369740#1.40 -951369740#1.44 -951369740#1.64 -951369740#0 -951369740#0.4 -951369740#0.11 -45344273#26 897252876#0 897252876#0.16 897252876#0.57 897252876#1 897252876#1.54 -45344336#9 -45344336#9.10 -45344336#9.61 -45344336#9.126 -45344336#9.147 -45344336#8 -45344336#8.20 -45344336#8.27 -45344336#8.33 -45344336#7 -45344336#7.6 950235692#0 -950235694#2 -950235694#1 950235695#3 -45344336#5 -700254524#1 -700254524#0 -950400191 -950400191.5 -950400191.10 -950400191.16 -950400191.25 -950235691#0 -950235691#0.4 950235690#1 45344335#4 -903341090 897172091#12 897172091#13 -45344320#4 -45344331#4 -45344331#3 -45344331#2 -45344331#1 952274660 952274660.29 952274660.31 952274660.34 -951404486#0 -45344333#1 -45344330#1 -45344330#0 -902433295#3 -902433295#2 897252876#9 45344324#0 -45344329#2 897252884#0 897252884#1 897252884#1.14 897252884#1.26 897252884#1.51 897252884#1.72 897252884#1.89 897252884#1.109 897252884#1.138 897252884#1.166 -897172091#1 -897172091#0 -45344294#6 -45344294#6.9 -45344294#6.25 -45344294#5 -45344294#5.7 -45344294#4 -45344294#4.7 -45344294#4.18 -45344294#3 -45344295#2 -45344295#2.38 -45344295#2.87 45344305#0 45344305#1 -45344304#8 -45344304#8.11 -45344304#7 -45344304#6 -45344304#6.5 -45344304#6.31 -45344304#6.62 -45344304#5 -45344286#12 -45344286#11 951404497 951404497.20 951404497.26 951404497.33 951404497.38 951404497.43 -897252855#0 -45344287#0 -45344287#0.5 -45344287#0.14 -951384608#1 -951384608#1.59 -951384608#1.63 -951384608#1.67 -951384608#1.69 -951384608#1.73 -951384608#0 -951384608#0.43 -951384608#0.47 -951384608#0.50 -951384608#0.52 -702632123#1 -702632123#1.4 -702632123#0 45344272#13 45344272#13.4 45344272#13.35 45344298 896892974 971495602#11 971495602#12 971495602#12.26 971495602#12.77 951442813 951442812#0 -896786335#50 -896892981#13 -896892981#13.5 -896892981#13.13 -896892981#12 -896892981#10 -896892981#10.8 -896892981#9 -896892981#8 -896892981#8.18 -896892981#8.50 -896892981#8.78 -951358829#1 -951358829#1.27 -951358829#1.80 950260764#0 950260764#0.14 950260764#0.20 950260764#0.27 950260764#0.78 950260764#0.85 950260764#0.90 950260764#0.94 950260764#0.98 950260764#1 950260764#2 950260764#3 950233986#3 -951349909#6 -951349909#6.10 -951349909#5 -951349909#5.11 -951349909#3 -951349907#1 951132945#3 -876614662#2 -896893025#11 -896893025#11.15 -951998762#1 951349909#1 876614662#4 876614662#4.24 876614662#4.82 876614662#4.124 896892984#0 896892984#0.37 896892984#1 896892984#2 896892986#3 -896892983#8 -896892983#7 -896892983#6 -951349907#3 951354775 -951354774#0 -951350966#3 -951350966#2 -951350966#2.8 -951350966#2.10 -951350966#2.12 -951350966#2.14 -951350966#2.16 -951350966#2.19 -951350966#2.59 -951350966#2.61 -951350966#2.63 -951350966#2.64 -951350966#2.66 -951350966#2.78 -951350966#2.82 -951350966#2.87 -951350966#2.94 -951350966#1 -951350966#1.7 -951350966#0 951350967#1 951350967#1.12 951349915#0 951349915#0.11 951349915#0.16 951349915#0.23 951349915#0.30 951349915#0.37 951349915#0.54 951349915#0.58 951349915#0.59 951349915#0.61 951349915#0.62 951349915#0.64 951349915#0.66 896892981#1 896892981#1.24 896892981#3 896892981#4 896892981#5 951349912#0 951349912#0.14 951349912#0.18 951349912#0.25 951349912#0.33 951349912#0.69 951349912#0.72 951349912#0.74 951349912#0.76 951349912#1 951349912#1.12 951349912#1.14 951349912#1.16 951349912#1.19 -896786335#44 -896786335#44.9 -896786335#44.71 -896786335#43 -896786335#42 -896786335#42.22 -896786335#41 908869237 908869237.8 908869237.20 908869237.48 -908869250#3 -908869238 -908869238.92 -896786335#39 -896786335#39.27 -896786335#37 -896786335#36 -951349917#1 -951349917#1.14 -951349917#1.29 -951349917#1.41 -951349917#1.59 -951349918 -951354772#1 -951354772#1.39 -951354772#1.50 -951354772#1.59 -951354772#0 -951354772#0.6 -951355289#1 -951355289#0 896893028#3 896893028#3.12 896893028#4 896893028#4.8 896893028#5 -896786335#29 -896786335#29.17 -896786335#28 951358824#0 951358824#0.11 951358824#0.16 951358824#0.21 951358824#0.29 951358824#0.41 951358824#0.47 951358824#0.52 951354763#2 -951358823 -951358823.62 -951358823.69 -951358823.74 -951358823.78 -896786335#26 -896786335#24 -896786335#23 -896786335#23.44 -896786335#22 -896786335#21 -896786335#21.41 -896786335#19 -896786335#18 -896786335#17 -896786335#17.2 -896786335#16 -896786335#16.7 -896786335#15 -896786335#14 -896786335#14.27 -896786335#13 -896786335#12 -896786335#12.15 -896786335#11 -896786311#13 -896786311#13.20 896786303#0 951983586#0 951983588#0 951983589#0 951983589#1 951983589#1.89 951983589#1.104 951983589#1.119 951983587#3 951983587#3.8 951983616#0 951983616#0.5 951983616#0.7 951983616#0.11 951983616#1 951983617#0 951983617#0.43 877398739#1 -951983587#1 -951983591 -896786311#9 951976010#0 -951976011#0 896786321#2 896786321#3 896786321#3.48 896786321#3.103 -896786335#8 -896786335#8.39 -951976009#1 -951976009#0 -896786320#1 -877396172#5 -877396172#3 -877396172#1 -877396172#1.57 951930664#5 896786316#2 896786317#0 951976005 951976006#0 951976006#1 -951976007 -896786335#6 -896786335#4 -896786335#4.18 -896786335#3 -896786335#3.10 -896786335#2 -896786335#1 -896786335#1.14 -896786335#0 -877395784#15 951946833#0 951946816#12 951946816#13 951946816#13.22 951946816#13.26 951946816#14 951946795#0 951946795#0.4 951946795#0.7 951946795#0.9 -951946803#0 951951639#1 951946802 951946795#2 951946795#3 951946795#4 951946795#6 951946795#7 951946795#9 -951946796#1 951946804 951946804.28 951946804.31 951946804.34 951946804.37 951946795#11 951946795#11.34 951946795#11.40 951946795#11.45 -951887683 -951887684 -951887682#6 951887695#5 671756019#0 671756019#1 671756019#2 671756019#2.43 671756019#3 -951961235 951961234#1 -951878265#2 -951878265#1 -951878265#0 951878264#2 -951878263#3 -951878266#4 -951878266#4.37 -951878266#2 -951878266#1 -951878266#1.39 -951878266#1.47"/>
</vehicle>
<vehicle id = "veh20" type= "veh_passenger" depart="21630" >
<route edges =" -45342801#4 45342799#23 45342799#25 45342799#25.7 45342799#25.22 45342799#26 45342799#27 45342799#27.15 45342799#27.20 45342799#27.25 45342799#27.36 -951370987 -951370987.52 -951370987.54 -951370987.56 -951370987.57 -951370987.59 -951370987.62 -903341083#2 -903341083#1 -903341083#0 672813677#4 672813677#4.8 903341082#1 -951368605#1 951368604 -45342801#1 -45342801#0 -45342798#1 -45342798#0 -45344273#21 -45344273#21.28 -45344273#19 45344322#0 -951404485 -45344321#0 -45344273#17 -45344273#17.20 -45344273#17.31 -45344273#16 -45344273#16.5 -45344273#16.30 902433295#0 902433295#0.35 -951370982#1 -951370980 -951370980.12 -951370980.14 -951370980.16 -951370980.17 -951370980.19 -951370980.24 -45344293#2 -45344293#2.10 -45344293#2.11 -45344293#2.12 -45344293#2.14 -45344293#2.15 -45344293#2.16 -45344293#2.18 -45344293#1 -45344293#1.78 -45344293#0 -45344273#13 -45344273#12 -45344273#11 -45344273#10 -45344273#10.42 45344291#0 45344291#0.102 45344291#0.192 951370978#0 -951370979#1 -951370979#1.19 -951440590 45344291#2 45344291#3 45344291#3.27 45344291#3.54 45344291#3.63 45344291#3.68 45344291#3.139 -951370958 45344288#1 45344288#1.10 45344288#1.64 45344288#1.123 45344288#1.180 951370977 -45344292#0 -45344292#0.4 -45344292#0.6 -45344292#0.63 -45344292#0.75 -45344292#0.106 -45344292#0.143 -45344292#0.247 -45344273#7 -45344273#7.22 -45344273#6 -45344273#6.40 -45344273#6.59 -951384598#3 -951384597 -951384597.29 -951384597.36 -951384597.43 -45344273#3 -45344273#3.6 -45344273#3.14 -45344273#3.31 -45344273#3.48 -45344273#2 -45344273#2.6 -45344273#2.24 -45344273#1 -45344273#1.7 -45344273#0 -897252881 -45378637#10 -45378637#9 -951404484#10 -951404484#9 -951404484#9.20 -951404484#8 -951404484#6 951404482 45378639#9 -951404481 -951404484#4 -951404484#4.8 -951404484#4.11 -951404484#4.13 -951404484#4.15 951404480 951404480.8 951404480.10 951404480.12 951404480.16 951404480.58 45378639#11 -951404475 -951404475.33 -951404475.43 -951404484#0 -951404484#0.3 -951404484#0.6 -951404484#0.11 -951404484#0.38 -45344310#0 -45344310#0.10 -45344310#0.18 -45344310#0.30 -45344310#0.41 -45344310#0.52 971495602#8 971495602#8.24 971495602#8.86 -313316104#6 -313316104#5 -313316104#5.12 -313316104#5.27 -313316104#5.46 -951435500 -951435500.28 -951435500.32 -951435500.35 -951435500.37 -951435500.40 -951435500.48 -951435500.51 -951435500.54 -951435500.57 -951435500.60 -951435500.63 -951435500.67 -951435500.70 -951435500.74 -951435500.78 -951435500.92 -951435500.96 -951435500.100 -951435500.103 -951435500.108 -951435500.117 -951435500.121 -951435500.125 -951435500.137 -951435500.141 -951435500.145 -951435500.148 -313316104#3 -951347804#2 -951347804#2.16 -951347804#2.19 -951347804#2.23 -951347804#2.26 -951347804#2.30 -951347804#2.33 -951347804#2.35 -951347804#0 -951347804#0.1 -951347804#0.6 -951347804#0.20 -951347804#0.28 -951347804#0.33 -951347804#0.39 -45378651#0 -45378651#0.20 -313316104#1 -313316104#0 -313316082 -45378649#12 896786296#0 -951355298#2 -951355298#2.7 -951355298#2.9 -951355298#2.11 -951355298#2.15 -951355298#2.38 -951355298#2.43 -951355298#1 -951355298#1.5 -951355298#1.10 -951355297#1 -951355296 -951354759#0 -951354759#0.4 -951354759#0.15 -951354759#0.20 -951354759#0.24 908869241#0 908869241#0.15 908869241#0.77 -908869239 -908869239.8 -908869239.11 -908869239.13 -908869239.15 -908869239.18 -45378649#3 -45378649#3.8 -896786265#8 -896786265#7 -896786265#7.11 -896786265#6 -896786265#6.26 896786253 896786253.47 896786253.111 896786263#4 -951358821#2 -951358821#2.84 -951358821#2.87 -951358821#2.89 -951358821#2.91 -951358821#2.98 -951358821#1 -951358821#0 -951358821#0.3 -951358821#0.6 -951358821#0.9 -951358822#0 -951358822#0.4 -951358822#0.8 -951358822#0.13 -951995493#1 -951995493#0 -951995491#1 -951995491#0 -896786266#12 909024250#0 909024250#1 909024250#2 909024250#4 909024250#5 909024250#6 909024239#0 909024239#1 909024239#1.17 909024239#2 909024239#2.40 877398366#3 951995475#4 -904371460#4 -904371460#4.9 -904371460#4.24 904371457 877398366#6 877398520#0 877398520#0.55 877398520#2 877398520#2.17 896786292#3 896786287#2 -877396033#5 -877396033#5.40 -896786286#3 -896786286#2 -896786286#2.18 951995479#0 -896786287#0 -896786287#0.41 -896786286#0 -896786286#0.12 877398366#9 877398366#11 877398366#11.20 877398366#12 877398366#13 -904286382#4 -904286382#4.34 -904286376 -904286377#0 -904286378#0 -904286380#2 -877396860#12 -877396860#11 -671191680#13 -904371463#1 -904371463#1.79 -904371463#0 904371465#1 904371465#2 -904371467#0 -896786328#2 -896786328#2.49 896786325#2 -896786324#1 -896786324#0 -896786324#0.19 -896786324#0.132 -896786324#0.177 951951639#0 951946803#0 -951946795#0 -951946795#0.68 -951946795#0.71 -951946795#0.74 -951946816#14 -951946816#13 -951946816#13.3 -951946816#13.8 951951634#0 951951634#1 951951634#1.75 951951634#1.79 951951634#1.82 951951634#1.86 -951951632#0 -951946805#1 -951946805#1.3 -951946805#1.6 -951946805#1.10 951946835#4 951946835#5 951946835#5.21 951946835#5.25 951946835#5.28 -951946805#4 -951946805#3 951946837#0 951946837#1 951946837#2 951946834#1 -951946833#7 951951631#0 -951975993 -951946833#4 -951946833#3 951951641 951946817#3 951946817#4 -951951636 951951635#2 -951946806#8 -951946806#7 -951946806#6 -951946806#6.36 -951946806#6.39 -951946806#6.41 -951946806#6.44 -951946806#4 -951946806#2 -951946806#1 -951946806#1.48 -951946806#1.55 -951946806#1.61 -951946806#1.69 -951946806#1.82 -951946806#1.90 -951946806#1.98 -951946806#0 -952365020 -952365021 -951878231#2 -951878231#1 -951878231#1.26 -951868611#0 -951951643#4 -951951643#3 -951951643#2 -951951643#1 -951951643#0 951878263#8 951878230#4 -951891772#4 -951961237 951891766#3 -951878269#10 -951878269#9 951891767 -951891766#0 -950288028#0 951878269#5 951891765#0 -951887656#1 951878272#1 -951887654#1 -951887655#2 951887657 -951891763#2 -951891763#1 -951891763#0 -951891764#0 -951887663#3 951887661#3 951878266#0"/>
</vehicle>
</routes>
