<?xml version="1.0" encoding="UTF-8"?>
<routes xmlns:xsi="http: // www.w3.org/2001/XMLSchema-instance" xsi:noNamespaceSchemaLocation="http: // sumo.dlr.de/xsd/routes_file.xsd">
<vType id="veh_passenger" vClass="passenger"/>

<vehicle id = "veh0" type= "veh_passenger" depart="0" >
<route edges =" -45342801#4 -45342801#3 -45342801#2 -45342801#1 -45342801#0 45342798#2 45342798#3 45342798#4 45342798#5 45342813#0 45342813#1 45342813#2 -45342814#1 44740902#11 44740902#12 44740902#13 44740902#14 44740902#14.81 44740902#14.94 -874839172#0 -44740943 -313316091#20 951438760#0 951438760#1 -44740929#4 -951438759 44740922#2 44740922#2.25 44740953#0 44740953#2 44740953#3 44740953#4 44740953#5 44740953#6 44740953#7 44740949#2 -44740919#1 -44740919#0 44740920#8 -313316091#0 -313316091#0.27 -313316091#0.72 -313316091#0.80 -971495601#9 -971495601#9.28 -971495601#8 -971495601#7 -971495601#6 -971495601#5 -971495601#3 -971495601#1 -971495601#0 -313316086 -44739144#26 -44739144#24 -44739144#22 -44739144#21 -44739144#20 -44739144#19 -44739144#19.14 -44739144#18 -877398366#21 -877398366#20 -877398366#19 -877398366#18 -877398366#17 -877398366#17.7 -877398366#16 -877398366#15 -877398366#15.29 -877398366#14 -877398366#14.72 -877398366#13 -671191680#14 -671191680#13 -671191680#11 -671191680#9 -671191680#8 -671191680#6 -896786326#1 -896786326#0 -896786328#0 -896786328#0.177 -951951638#10 -951951638#10.18 -951951638#9 -951951638#8 -951951638#7 -951951638#5 -951951638#4 -951951638#3 -951951638#2 -951946794#1 -951946794#0 951946792#1 896786337#8 896786337#8.8 -951887683 -951887684 -951887682#6 -951887682#5 -951887682#4 -951887682#3 951887692 -951887691#0 -951887682#0 -951887700#14 -951961240#3 -951961240#1 -951961245 951891772#0 -951891773 -951891771#0"/>
</vehicle>
<vehicle id = "veh1" type= "veh_passenger" depart="0" >
<route edges =" 45342801#5 45342801#5.32 902433317#3 902433317#4 902433317#6 902433317#7 902433317#8 902433317#8.29 951368593#1 972507120#2 45342812#0 45342812#1 45342811#2 45342811#2.66 45344273#23 45344273#23.11 45344273#24 -897252873#2 -897252873#1 -897252873#1.42 -897252873#0 -897252873#0.25 897252876#4 45344320#2 45344320#3 -45344331#4 45344327#1 903341090 -45344335#4 -950235690#1 -950235690#0 -950235690#0.14 700254525#11 700254524#0 700254523 -700254525#0 45344272#4 950233988#0 45344283#9 45344283#10 45344283#10.15 45344283#10.46 45344283#10.69 45344283#10.88 45344283#10.150 45344283#10.196 45344283#10.260 45344283#10.377 45344283#10.468 45344283#10.514 670655885 670655885.12 896892975 971495602#12 971495602#12.26 971495602#12.77 951442813 951442812#0 -896786335#50 -896786335#49 -896786335#48 -896786335#48.15 -896786335#47 -896786335#46 -896786335#44 -896786335#44.9 -896786335#44.71 -896786335#43 -896786335#42 -896786335#42.22 -896786335#41 -896786335#40 -896786335#39 -896786335#39.27 -896786335#37 -896786335#36 -896786335#34 -896786335#33 -896786335#32 -896786335#32.17 -896786335#31 -896786335#31.22 -896786335#30 -896786335#29 -896786335#29.17 -896786335#28 -896786335#27 -896786335#27.19 -896786335#26 -951995494#1 -951995491#2 -951995491#1 -951995491#0 -896786266#12 909024250#0 909024250#1 909024250#2 909024250#4 909024250#5 909024250#6 909024239#0 909024239#1 909024239#1.17 909024239#2 909024239#2.40 -951983585 -951975994 -896786324#1 -896786324#0 -896786324#0.19 -896786324#0.132 -896786324#0.177 951951639#0 951946803#0 951946795#1 951946795#2 951946795#3 951946795#4 951946795#6 951946795#7 951946795#9 951946795#10 951946795#11 951946795#11.34 951946795#11.40 951946795#11.45 896786337#10 896786337#10.21 -951887700#20 -951887700#19 -671756019#4 -951961235 951961234#1 -951878265#2 -951878265#1 -951878265#0 951878264#2 -951878263#3 -951878266#4 -951878266#4.37 -951878266#2 -951878266#1 -951878266#1.39 -951878266#1.47"/>
</vehicle>
<vehicle id = "veh2" type= "veh_passenger" depart="0" >
<route edges =" 951370989 951370989.40 951370989.47 951370989.53 951370989.56 951370989.62 951370989.64 951370989.67 -902433320#1 -902433320#0 902433321#2 45342799#21 45342809#0 45342809#1 45342809#2 45342809#3 45342809#4 45342809#5 45342809#6 45342809#7 45342809#8 44740885#10 -45342826#1 -45342826#0 45342825#1 45342825#2 45342828#0 45342828#1 45342828#1.100 -45344273#6 -45344273#6.40 -45344273#6.59 -951384598#3 -951384598#2 -951404491 -951404491.16 -951404491.28 -951404491.40 -951404491.51 -951384599#0 700249213#9 700249213#10 700249213#11 45342808#10 45342808#11 45342808#11.24 45342808#12 -897252871 -897252870 -45344310#2 -45344310#1 -45344310#0 -45344310#0.10 -45344310#0.18 -45344310#0.30 -45344310#0.41 -45344310#0.52 971495602#8 971495602#8.24 971495602#8.86 -313316104#6 -45378650#5 -45378650#5.11 -45378650#4 45378645#0 45378645#0.44 -908846596#3 -908846596#2 45378650#1 -908846593 -908846593.73 908560901#8 908560901#8.23 908560901#8.56 -313316104#0 -313316082 -45378649#12 896786296#0 896786296#1 896786296#1.36 -896786262#6 -896786262#6.15 -896786262#5 -896786262#4 -896786262#4.31 -896786262#3 -896786262#3.9 -896786262#1 -896786262#0 -896786262#0.33 -896786262#0.115 -896786260#1 -896786260#1.5 -896786260#0 -896786260#0.52 896786257#4 909024248 909024248.50 -45378665#3 -45378665#3.29 -45378665#3.50 -45378665#2 -45378665#2.36 -45378665#1 -45378665#0 -45378665#0.39 -45378665#0.75 -896786335#14 -896786335#14.27 -896786335#13 -896786335#12 -896786335#12.15 -896786335#11 -896786335#10 -896786335#10.38 -951976010#1 -951976011#0 896786321#2 -896786320#3 -896786320#3.5 -896786320#1 -896786320#0 -896786316#3 -896786316#2 -896786316#1 -896786316#1.33 -896786314 -951930663#1 -951930663#0 -877395784#11 -877395784#11.58 951946825#0 951946825#1 -951946816#4 951946844 877399011#1 951946810#2 -896786337#14 -896786337#14.40 -896786337#14.111 -952365020 -952365021 -951878231#2 -951951643#6 -951951643#5 -951951643#4 -951951643#3 -951951643#2 876509484#2 -951951642#1 -951951642#0 -951878263#5 -951878269#15 -951891772#2 -951891774 951891771#2 951878270#2 877401978#0 877401978#1 951878266#0"/>
</vehicle>
<vehicle id = "veh3" type= "veh_passenger" depart="3605" >
<route edges =" -45342801#4 45342799#23 672813677#0 672813677#0.22 672813677#0.51 672813677#1 672813677#1.14 672813677#1.27 672813677#2 903341083#0 -951368605#2 -951368605#1 951368604 -45342801#1 -45342801#0 45342798#2 45342798#3 -45342837 -45342836#0 -45342818#1 -45342817#2 -45342817#1 45342816#0 951370984#1 45342813#2 -45342814#1 44740902#11 44740902#12 671399046#2 671399046#2.23 671399046#3 671399046#3.56 -44740885#5 -44740885#5.33 -44740885#4 -44740885#3 -44740901#6 -44740901#5 44740896#0 -951417473 -44740957#6 -44740957#5 -671399051#1 -671399051#0 -44740942#1 -44740942#0 974189220#5 902433296 44740967#0 44740967#1 44740967#2 44740967#3 44740967#4 -44740927#17 -44740923#2 -44740926#0 44740922#6 -44740989#1 -44740923#0 -44740930#9 44740925#0 44740925#1 44740926#5 44739167#11 44739167#12 44740953#4 44740951#0 44740951#1 44740949#1 44740949#2 -44740919#1 -44740919#0 44740920#8 -313316091#0 -313316091#0.27 -313316091#0.72 -313316091#0.80 -971495601#9 -971495601#9.28 -971495601#8 -971495601#7 44740916#12 -909019766#1 -909019766#1.6 -909019766#1.14 -909019766#1.30 -909019766#1.52 909019765 909019768#1 909019767#0 909019767#0.42 909019767#1 909019767#1.24 909019767#1.35 -971495601#5 -971495601#3 -951346855#1 -951346855#1.22 -951346855#1.42 -951346855#1.57 -951346855#0 -951346855#0.7 -951346855#0.23 -908560900#2 -908560900#1 908560901#22 908560901#22.77 908560901#22.89 -971495601#0 -313316086 -44739144#26 -903953334#9 -903953334#9.24 -903953334#9.50 -903953334#9.58 -903953334#8 -903953334#8.6 -903953334#8.17 -903953334#8.53 -903953325#4 -903953326#1 -903953326#0 -44739144#22 -44739144#21 -951346849 -909778546#0 -903953325#2 -903953325#2.18 -909778547#2 -909778547#0 -44739144#19 -44739144#19.14 702673217#0 702673217#1 702673217#2 702673217#3 909024268#0 909024268#0.30 -909024267 -909024267.44 702673217#5 896786276 896786276.34 896786277#2 -951992347 896786294#3 896786294#3.13 -909024256#1 -909024256#1.22 -909024256#1.80 -909024256#0 -909024256#0.28 896786279#5 896786278#1 896786267#2 -904286382#4 -904286382#4.34 -904286382#3 -904286382#2 -904286382#1 -904286382#0 -904286374 904286375#3 -671191680#9 -671191680#8 -904286371 904286373#3 904286373#3.20 904286373#3.23 904286373#4 -904371487#1 -904371487#1.16 -904371489#2 -904371489#1 -904371489#1.14 -904371489#1.36 -904371489#1.40 -904371489#1.44 671191682#0 671191682#1 671191682#2 904371493#3 904371493#4 904371493#5 951973474#0 951973474#1 -951973473#0 951973472#1 -904371491 904286385#3 -951973457 904371492#5 -904371456#3 951973471#4 -951973470#0 -904371490#2 -904371490#1 -904371490#0 671191680#5 -896786326#1 -896786326#0 -896786328#0 -896786328#0.177 -951951638#10 -951951638#10.18 -951951638#9 -951951638#8 -951951638#7 -951951638#5 -951973430#0 -952002224#4 -952002224#4.27 951946798#0 -951951638#3 -951951638#2 -951951638#1 -952000397 951951639#15 896786337#6 896786337#7 896786337#8 896786337#8.8 -951887683 -951887684 -951887682#6 951887695#5 -951887700#19 -951887700#18 -951887690 951887688#2 -951887686#0 -951887682#4 -951887682#3 951887692 -951887691#0 -951887682#0 -951887700#14 -951961240#3 -951961240#1 -951961245 951891772#0 -951891773 -951891771#0"/>
</vehicle>
<vehicle id = "veh4" type= "veh_passenger" depart="3605" >
<route edges =" 45342801#5 45342801#5.32 902433317#3 951421968#0 951421968#1 951421968#1.20 -951381446#1 -951368598#0 -951370988 -951370988.61 -951370988.66 -951370988.72 45342799#25 45342799#25.7 45342799#25.22 951368597 902433317#7 902433317#8 902433317#8.29 902433317#9 951368594#0 951368594#1 -951369743#1 -951369743#1.33 -951369743#1.39 951421966 -951366780#1 -951366780#1.2 -951366780#1.41 951366779#0 951366779#1 45342812#1 45342811#2 45342811#2.66 45344273#23 45344273#23.11 -951379890#1 -951379890#1.37 -951379890#1.47 -951379889 -951379889.17 -951379889.23 -951379889.29 -951379889.36 -951379889.42 -897252873#1 -897252873#1.42 -897252873#0 -897252873#0.25 897252876#4 897252876#5 897252876#5.34 897252876#6 897252876#7 897252876#8 902433295#2 45344329#4 45344329#5 -951381435 -45344331#2 -45344331#1 952274660 952274660.29 952274660.31 952274660.34 -951404486#0 -45344333#1 -45344330#1 -45344330#0 902433295#4 902433295#4.36 902433295#4.49 951381433 951381433.13 951381433.15 951381433.17 951381433.18 951381433.19 951381433.23 951381433.25 951381433.26 951381433.27 951381433.29 951381433.31 897172091#5 897172091#6 699875133 -699875130#0 -699875130#0.26 -699875131#0 897172091#9 897172091#10 -45344327#1 45344331#4 45344320#4 45344320#5 45344320#5.26 45344320#6 45344320#6.8 -45344335#7 -45344335#5 -45344335#4 -45344335#3 -45344335#2 -45344335#1 -950235689#2 -950235689#1 950400192#1 699875131#4 700254525#9 700254525#11 700254525#12 700254525#12.12 950235692#0 950235694#3 -950235703#3 -950235703#2 -950235703#2.9 950455053 950235692#2 950235692#3 950235692#4 45344273#36 45344273#36.18 -950238179#1 -950755158 -950755158.48 -950755158.54 -950755158.58 -950755158.63 950238182#0 -950238181#1 -950238181#0 950238180#5 950238180#5.14 -950238178#0 -897252880#8 -897252880#8.44 950238184#0 -950238180#3 -950238180#3.35 -950238180#3.57 -950238180#3.61 -950238180#3.64 -950238180#2 950238184#4 45344271#15 -950806855#5 -950806855#3 -950806855#2 -950806855#2.23 -950806855#2.29 -950806855#2.33 -950806855#2.39 -950806855#2.43 -950806855#2.49 -950806855#1 -950806855#1.24 -950806855#1.29 950806854 -950235727#5 -950235727#4 -950806856 -950806856.40 -950806856.46 -950806856.53 -950806856.64 -950235725#3 -950806857 45344277#3 45344277#4 950806852#0 950806852#0.16 950806852#0.21 950806852#0.26 950806852#0.31 950806852#0.35 950806852#1 950235725#5 -950806858 45344277#7 45344277#8 -950806850#1 -950806850#0 -45344271#11 -45344271#10 950641816#11 950641816#12 950641816#12.39 -950238188#4 -950238188#3 -950241847#7 -950241847#7.19 950553571 950553571.38 950553571.41 950553571.44 950553571.54 950553571.56 950553571.58 950553571.66 950553571.68 950553571.71 -950241847#4 -950238186#0 950238187 -45344282#2 -45344282#2.18 -45344282#2.53 -950553577#2 950238191 950238191.37 -45344283#0 -45344282#0 -45344272#0 -45344273#40 -950235700#3 -950235700#2 -950235700#1 -950235700#0 -45344336#4 -45344336#3 -45344336#2 -45344336#1 -45344336#0 45344284#3 -950238192#4 45344281#1 -950241866#8 -950241233#3 -950241233#2 -950241233#1 -950241233#0 45344280#11 45344280#11.11 45344280#11.23 45344280#12 45344284#0 45344284#1 -950553573 -950238193#1 -950238193#0 45344280#14 45344280#14.13 45344280#15 45344283#5 -950553582#2 -950553582#2.27 950553580#0 950553579 950553579.70 950553579.75 950553579.82 -950553581#0 -950553581#0.8 -950553581#0.15 -950553582#0 -950553582#0.6 950233989#1 950233989#1.12 950233989#1.21 950318421#0 950318421#0.10 950318421#0.18 950318421#0.29 950318421#0.39 950318421#1 -950233988#1 -950233988#1.32 -950233988#0 45344272#5 45344272#6 45344272#7 45344272#7.21 45344272#7.41 950389249#0 950389249#0.37 950389249#0.40 950389249#1 950389249#1.2 950389249#1.22 950389249#1.25 950389249#1.27 950389249#1.30 950389249#2 950389249#2.19 950389246 950389246.10 950389246.16 950389246.23 -950389247#1 -950389247#1.13 -951441775 -951441775.15 -951441775.28 -951441775.39 -951441775.47 -951441775.60 951381432#1 951381432#1.2 951381432#1.5 951381432#1.8 -897252850#3 -897252850#2 -897252850#2.11 -897252850#2.29 -897252850#1 -897252850#1.5 -897252850#0 -897252852#1 -897252852#1.36 897252851 -45344304#0 45344272#10 45344272#10.38 45344272#11 45344272#11.35 45344272#12 45344272#13 45344272#13.4 45344272#13.35 45344298 896892974 971495602#11 971495602#12 971495602#12.26 971495602#12.77 951442813 951442812#0 -896786335#50 -896892981#13 -896892981#13.5 -896892981#13.13 -896892981#12 951354780 951354780.16 951354780.26 -896786335#47 -896786335#46 -896786335#44 -896786335#44.9 -896786335#44.71 -896786335#43 -896786335#42 -896786335#42.22 -896786335#41 -896786335#40 -896786335#39 -896786335#39.27 -908869251 -908869251.5 -908869251.7 -908869251.10 -908869251.12 -908869251.30 -908869251.35 -908869251.40 -908869251.44 -908869251.48 -908869251.66 -908869251.70 -908869251.73 -908869251.76 -908869251.78 896786248#1 896786248#1.30 896786248#1.43 -951349917#1 -951349917#1.14 -951349917#1.29 -951349917#1.41 -951349917#1.59 -951349918 -951354772#1 -951354772#1.39 -951354772#1.50 -951354772#1.59 -951354772#0 -951354772#0.6 951354773#2 951354773#2.8 951354773#2.14 951354773#2.38 951354773#2.61 951354773#2.86 -951354771#1 -951354771#0 896893028#5 45378649#0 45378649#0.36 45378649#1 45378649#2 45378649#2.17 -896786265#8 -896786265#7 -896786265#7.11 951354765#0 951354763#1 951358824#1 -896786265#5 -896786265#4 -896786265#4.59 -951995493#1 -951354763#4 951995494#0 951995494#1 -877388728#14 -877388728#13 -877388728#13.55 896893004#0 -896893003 896893013#6 896893013#6.11 951995483 896893004#3 896893004#3.24 896893004#4 896893002 896893002.42 -896786335#22 -896786335#21 -896786335#21.41 -909024249 -909024249.19 -909024249.70 -909024250#0 -896786266#11 -896786266#11.7 909024253#0 909024253#1 909024253#1.45 -896786293#7 -909024242 951995490#1 951995490#1.10 951995490#1.14 951995490#1.17 951995490#1.20 -909024243#1 -909024243#1.11 -909024243#1.69 -909024243#1.72 -909024243#1.74 -909024243#1.78 951995495 -896786335#18 -896786335#17 -896786335#17.2 -896786335#16 -896786335#16.7 909024246 909024246.10 909024246.18 909024246.25 909024246.61 909024250#6 909024239#0 909024239#1 909024239#1.17 909024239#2 909024239#2.40 877398366#3 -951995475#3 -896786288#1 -896786288#0 -896786288#0.20 -896786288#0.42 -951995479#1 896786287#1 896786292#4 896786292#4.57 896786286#3 -877396033#4 -877396033#4.15 -877396033#2 896786284#0 896786284#0.89 -877398366#11 -877398366#11.11 -904371462#2 904371460#0 904371460#0.34 904371460#1 904371460#2 904371460#2.34 904371460#4 904371460#4.17 904371460#4.32 904371460#5 -896786328#3 -896786328#3.70 -896786328#2 -896786328#2.49 896786325#2 -896786324#1 -896786324#0 -896786324#0.19 -896786324#0.132 -896786324#0.177 951951639#0 951951639#1 951951639#3 951951639#4 951951639#6 951951639#7 -951973430#1 -951951638#4 951946798#1 -951951639#9 951946799 951946795#6 951946795#7 951946795#9 951946795#10 951946795#11 951946795#11.34 951946795#11.40 951946795#11.45 896786337#10 896786337#10.21 -951887700#20 671756019#0 -951961251#1 951961247#0 951961248#0 951961248#1 876509484#7 876509484#7.4 876509484#7.22 951878263#0 951878263#0.8 951878263#0.15 -951878265#1 -951878265#0 951878264#2 -951878263#3 -951878266#4 -951878266#4.37 -951878266#2 -951878266#1 -951878266#1.39 -951878266#1.47"/>
</vehicle>
<vehicle id = "veh5" type= "veh_passenger" depart="3605" >
<route edges =" 951370989 951370989.40 951370989.47 951370989.53 951370989.56 951370989.62 951370989.64 951370989.67 -902433320#1 -902433320#0 902433321#2 45342799#21 45342809#0 951368600#0 -951368603#1 951368601#0 951368601#1 -45342797#2 -45342797#1 -45342797#0 -45342834#1 -45342834#0 44740902#8 44740902#9 44740902#9.47 -951370984#2 -45342813#1 45342817#0 45342817#1 -45342803#7 -45342803#6 45342814#4 45342814#5 45342809#8 -44740885#9 -44740885#9.34 -45342803#4 45342821#0 -45342822#2 -45342822#1 -45342822#0 45342831#3 45342809#12 45342823#0 45342823#1 45342824#4 45342825#2 45342828#0 45342828#1 45342828#1.100 -951384596#1 -951384596#1.24 -951384596#1.31 -951384596#1.36 -951384596#1.46 -951384596#1.54 -951384596#1.60 -951384596#1.72 -951384596#1.107 -951417467 -951417467.14 -951417467.15 -951417467.17 -951417467.18 -951417467.21 -951417467.23 -951417467.24 -951417467.25 -951404491 -951404491.16 -951404491.28 -951404491.40 -951404491.51 -951384599#0 700249213#9 700249212#0 700249212#1 700249212#3 45342808#9 45342808#10 45342808#11 45342808#11.24 951417471 951417471.18 951417471.38 951370965#1 951370965#1.28 951370965#1.49 -951384594 -951384594.27 -951384594.32 -951384594.35 -951384594.38 -951384594.41 897252864#1 897252864#3 -897252871 -897252870 -45344310#2 -45344310#1 -45344310#0 -45344310#0.10 -45344310#0.18 -45344310#0.30 -45344310#0.41 -45344310#0.52 971495602#8 971495602#8.24 971495602#8.86 -313316104#6 -45378650#5 -45378650#5.11 -45378650#4 -45378650#3 -45378650#3.29 -908846595#2 -908846595#2.24 -908846596#2 45378650#1 -908846593 -908846593.73 908560901#8 908560901#8.23 908560901#8.56 -313316104#0 -313316082 -45378649#12 896786296#0 896786296#1 896786296#1.36 -896786262#6 -896786262#6.15 -896786262#5 -896786262#4 -896786262#4.31 -896786262#3 -896786262#3.9 -896786258#4 -896786258#2 -896786258#2.22 -896786256 -896786256.31 -896786256.68 -896786256.122 -896786260#4 -896786260#4.11 -896786260#3 -896786260#1 -896786260#1.5 -896786260#0 -896786260#0.52 896786257#4 909024248 909024248.50 -45378665#3 -45378665#3.29 -45378665#3.50 -45378665#2 -45378665#2.36 -45378665#1 -45378665#0 -45378665#0.39 -45378665#0.75 -896786300#3 -896786300#3.27 -896893012#1 -896893012#0 -896893012#0.11 896786303#5 896786303#5.27 896786303#5.100 896786303#5.124 896786303#6 896786303#6.29 896786302#1 896786304#6 896786304#7 896786304#7.11 896786304#8 896786304#8.15 896786304#9 896786304#9.20 896786311#11 896786311#11.62 -951976011#1 -951976011#0 896786321#2 -896786320#3 -896786320#3.5 951976009#0 -951976006#2 -951976006#1 -951976008 -896786319#1 -896786319#1.31 -896786318 -896786318.47 -896786315#4 -951976005 -896786317#0 896786316#3 -896786315#0 951976013#0 951930665#0 951930665#1 951930665#2 951930664#4 -877396172#0 -877396172#0.15 -896786313#2 -896786313#2.55 -951930663#1 -951930663#0 -877395784#11 -877395784#11.58 951946825#0 951946825#1 -951946816#4 -951946816#2 -951946816#1 -951946816#0 951946815#5 -951946814#0 -951946812#1 -951946813 951946810#1 951946810#2 -896786337#14 -896786337#14.40 -896786337#14.111 -952365020 -952365021 -951878231#2 951868619#0 951868620#0 -951868611#1 -951868611#0 -951951643#4 -951951643#3 -951951643#2 876509484#2 876509484#3 -951951650 -951951648#2 -951951642#0 -951878263#5 -951878269#15 -951891772#2 -951891774 951891771#2 951878270#2 951878270#3 951930614 -951878269#7 -951878269#6 -951878269#5 -951878269#4 951878272#0 951887656#1 951891765#1 -951887654#2 951878272#2 -951887657 -951887655#1 -951887655#0 904196454#1 904196454#1.35 904196454#2 951887661#0 951917022 -951887660#3 -951887660#2 -951887663#3 951887661#3 951878266#0"/>
</vehicle>
<vehicle id = "veh6" type= "veh_passenger" depart="7210" >
<route edges =" -45342801#4 -45342801#3 -45342801#2 -45342801#1 -45342801#0 45342798#2 45342798#3 45342798#4 45342818#0 -45342817#2 -45342803#7 -45342803#6 -45342803#5 -44740885#8 -44740885#7 -44740885#6 -44740885#5 -44740885#5.33 -44740885#4 671399058#0 671399058#1 671399058#2 -44740901#3 -44740901#2 -671399049#1 -671399049#0 -671399051#0 44740942#2 44740942#2.58 -874839172#0 -44740943 -313316091#20 951438760#0 951438760#1 -44740929#4 -44740929#3 951438763#0 951438763#0.24 951438763#0.27 951438763#0.28 951438763#0.32 951438763#0.37 951438763#1 951438763#1.5 44740967#2 44740967#3 44740967#4 -44740927#17 -44740927#16 -44740927#15 -44740927#14 44739167#12 44740953#4 44740953#5 951358801 -44740927#10 -44740927#9 -951358800#1 -951358800#0 -44740918#1 -44740918#0 44740920#6 -951358792 -951358792.26 -951358792.42 -951358792.53 -951358792.66 896892969#18 45340579#18 45340579#18.164 44740932#0 -44740934#4 668599377#0 668599377#0.33 668599377#1 668599377#1.37 44740916#9 44740916#9.64 44740916#11 -971495601#6 -971495601#5 -971495601#3 -971495601#1 -971495601#0 -313316086 -44739144#26 -903953334#9 -903953334#9.24 -903953334#9.50 -903953334#9.58 -903953334#8 -903953334#8.6 -903953334#8.17 -903953334#8.53 -903953325#4 -903953325#3 -903953325#2 -903953325#2.18 -909778547#2 -951361609 903953324#1 903953324#1.22 -44739144#18 -877398366#21 952002225#0 952002225#1 877396860#22 -44739144#12 -44739144#11 -44739144#10 -904371478#2 -904371478#2.24 -904371478#1 -904371478#1.6 904371479#1 904371479#1.2 904371479#1.8 904371479#1.27 904371479#1.58 904371479#3 -877396860#18 -877396860#18.14 909024294#0 909024294#0.52 909024294#1 877398366#18 896786289#2 702673217#3 702673217#4 702673217#5 -896786294#0 -896786294#0.13 -877398366#16 -877398366#15 -877398366#15.29 -877398366#14 -877398366#14.72 -877398366#13 -671191680#14 -671191680#13 904286381#0 904286382#0 904286382#1 877396860#12 -904286380#1 -904286380#1.6 -904286380#1.33 904286383#3 904286383#3.17 -904286379 904286381#3 904286381#3.4 904286381#3.18 904286381#4 -951992355 904286385#12 904286385#13 904286385#13.24 904286384#0 904286384#1 904286384#1.16 904286384#2 904286384#2.14 877396860#15 904286386#2 904371474#0 904371474#0.21 904371473#0 904371473#1 904371473#1.24 904371469 904286386#6 904286386#7 671191683#3 -904286387#3 -904286387#3.46 -904286387#3.53 951973456#0 951973456#1 951973451#1 -951973453#1 -951973453#0 -904286387#1 951973452#1 951973452#2 951973452#3 -904371488#8 -904371488#8.6 -904371488#8.17 -904371488#7 -904371488#7.3 -904371488#7.6 -904371488#6 -904371488#5 -904371488#4 904371486#0 904371486#1 904371487#0 -904371489#2 -904371489#1 -904371489#1.14 -904371489#1.36 -904371489#1.40 -904371489#1.44 671191682#0 -671191681#3 -671191681#3.14 -671191681#2 -951973437#1 -951973438#1 -951973438#1.17 -951973438#1.20 -951973438#1.25 -951973438#1.31 -951973439 951973436#2 -671191681#0 904286385#1 904371493#5 904371492#2 904371492#3 904371492#4 904371492#5 904371492#6 -904371490#2 951973469 951973468#2 951973468#2.24 951973468#2.27 951973468#2.29 951973468#2.32 -904371490#0 671191680#5 671191680#6 -904286371 904286373#3 904286373#3.20 904286373#3.23 904286372#0 904286375#1 904286373#0 -951975997 -904371467#2 -904371467#2.49 -904371467#2.113 904371464 896786325#1 -896786328#1 -896786328#0 -896786328#0.177 -951951638#10 -951951638#10.18 -951951638#9 951973426#2 -952002224#6 951973432#0 -951951638#7 -951951638#5 951973430#1 951951639#8 951951639#9 951951639#10 951951639#11 -952000398 -951951638#2 -951951638#1 -951951638#0 896786337#5 896786337#5.11 896786337#6 896786337#7 896786337#8 896786337#8.8 -951887683 -951887684 -951887682#6 -951887682#5 951887686#0 -951887688#2 -951887688#1 -951887688#0 -951887687#0 -951887687#0.5 -951887682#3 -951887682#2 -951887682#2.37 -951887682#1 -951887682#1.2 -951887682#1.5 -951887682#0 -951961243 -951961242#0 -951961240#1 -951961245 951891772#0 -951891773 -951891771#0"/>
</vehicle>
<vehicle id = "veh7" type= "veh_passenger" depart="7210" >
<route edges =" 45342801#5 45342801#5.32 902433317#3 902433317#4 902433317#6 902433317#7 -951368596 45342799#27 45342799#27.15 45342799#27.20 45342799#27.25 45342799#27.36 -951370987 -951370987.52 -951370987.54 -951370987.56 -951370987.57 -951370987.59 -951370987.62 903341083#3 972507120#2 45342812#0 45342812#1 45342811#2 45342811#2.66 -45344273#22 -45344273#22.6 -45344273#22.18 -45344273#22.35 -45344273#21 -45344273#21.28 -45344273#19 -45344273#18 -45344273#18.17 45344321#0 45344321#1 -897252876#6 -897252876#5 -897252876#5.20 45344320#2 -45344329#7 45344327#0 -45344331#3 -45344331#2 -45344331#1 952274660 952274660.29 952274660.31 952274660.34 951404486#1 45344326#2 45344326#2.16 45344326#3 699875133 699875130#1 45344297#0 45344297#0.22 -950400195#2 -950400195#2.10 950400194#0 -950400193#1 -950400193#0 -950400195#0 700254525#6 700254525#8 -699875131#4 -699875131#3 -699875131#2 45344335#2 45344335#3 45344335#4 45344335#5 -950235691#2 -950235691#2.50 -950235691#1 -950235691#0 -950235691#0.4 -950235690#0 -950235690#0.14 700254525#11 700254525#12 700254525#12.12 950235692#0 -950235694#2 -950732875#1 -950235702 950235695#2 950235695#3 -45344336#5 -700254524#1 700254523 -700254525#0 45344272#4 950233988#0 950233988#1 950233988#1.76 950233988#2 950233988#2.43 950233988#2.55 -700278833#3 700278832#0 700278832#0.21 700278832#1 -950392123#2 -950392123#2.17 -950392123#2.22 -950392123#2.28 -950390889#3 -950390889#3.20 -950390889#3.34 -950390889#3.45 -950390889#1 -950390889#1.12 -950390889#1.34 -950390889#0 -950390889#0.4 -950390889#0.19 -950390893#1 -950390893#1.23 -950390893#1.49 -950390893#1.53 -950390893#1.57 -950390893#1.63 -950390893#0 700278832#4 700278832#4.33 700278832#5 700278832#5.53 45344280#12 45344284#0 45344284#1 -950553573 950238193#2 -45344336#0 45344284#3 -950238192#4 45344281#1 -950241866#8 -950241233#3 -950241233#2 -950238192#2 -950238192#2.18 -950238192#2.21 -950394094 -950394094.12 -950394094.16 -950394094.20 -950394094.25 -950394094.28 -950394094.30 950241229#1 950392116#1 45344280#8 45344280#8.17 -950390893#4 -950390893#4.28 -950390893#4.45 -950390893#4.63 -950241224#1 -950241224#1.11 -950241224#1.23 -950241224#1.37 -950241224#1.56 -950241224#1.81 -950241224#1.86 -950241224#0 -950241224#0.3 -950241224#0.13 -950241224#0.18 -950241224#0.22 -950241224#0.27 -950241224#0.31 -950241224#0.35 -45344280#6 -45344280#6.17 -45344280#4 950394096#0 950394096#1 45344282#7 -897252877#2 -897252877#2.49 950243392#0 950241209#3 950241209#3.37 950241209#4 950241209#4.21 950241209#5 950241209#5.13 45344280#2 45344280#2.21 -950241220#4 950241223#0 -950241222#3 -951132943 -951132943.7 -950241220#1 -950241220#0 -950241220#0.25 -950241220#0.78 -700278833#0 -700278833#0.27 897252879#17 897252879#18 897252879#18.162 897252879#19 897252879#19.29 897252879#20 897252879#21 897252879#21.85 897252879#22 897252879#23 896892972 896892973 896892973.27 896892973.31 -896786335#50 -896786335#49 -896786335#48 -896786335#48.15 -896786335#47 -896786335#46 -896786335#44 -896786335#44.9 -896786335#44.71 -896786335#43 -896786335#42 -896786335#42.22 -896786335#41 -896786335#40 -896892982#2 951421976 896892983#2 896892983#2.46 896892983#3 896892983#3.35 896892982#0 896892982#0.29 -951349921#5 -951349921#5.15 -951349921#5.17 -951349921#5.20 -951349921#5.23 -951349921#5.25 -951349921#5.32 -951349921#5.34 -951349921#5.37 -951349921#5.39 -951349921#5.42 951349920 951349920.8 951349920.12 951349920.15 951349920.20 951349920.60 951349920.65 951349920.69 951349920.73 951349920.77 -896786335#37 -896786335#36 -896786335#34 -896786335#33 -896786335#32 -896786335#32.17 -896786335#31 -896786335#31.22 -896786335#30 -896786335#29 -896786335#29.17 -896786335#28 -896786335#27 -896786335#27.19 -896786335#26 -896786335#24 -896893004#5 896893002 896893002.42 -896786335#22 -896893013#7 -896893013#7.29 -896893013#7.87 -896893013#6 -896893013#6.15 -896893013#5 -896893013#5.11 -896893013#5.13 -896786308#6 -896786308#6.17 -896786308#4 896893000 896893000.62 896893000.89 896786307#7 896786307#7.3 -896892999 -896892999.50 -896892998#2 -896892998#2.10 896892993 896892993.48 896892993.74 -896786307#4 -896786307#4.9 -896786307#2 -896786307#2.7 -896786307#1 951995496 951995496.11 951995496.15 951995496.18 951995496.22 951995496.29 896786309#5 896786310#3 896786310#4 896786310#4.16 896786310#6 896786310#6.17 -951983592#4 -951983592#4.18 -951983592#4.26 -951983592#4.38 -951988579 951988578#1 -951988576#1 951988574#1 951988574#1.57 951988574#1.71 951988575#1 896786309#2 896786309#2.9 896786309#2.70 896786308#0 896786308#0.23 896786308#1 896786308#1.21 -896786305#0 -896786305#0.72 -896786305#0.81 -896786309#0 896786304#2 896786300#0 896786300#0.23 896893013#0 896893013#0.10 896893013#0.59 896893013#1 896893013#1.26 896893013#2 896893011#0 896893011#0.60 896893011#1 -909024249 -909024249.19 -909024249.70 909024250#1 909024250#2 909024250#4 909024250#5 909024250#6 909024239#0 909024239#1 909024239#1.17 909024239#2 909024239#2.40 -951983585 -951975994 -896786324#1 -896786324#0 -896786324#0.19 -896786324#0.132 -896786324#0.177 951951639#0 951946803#0 951946795#1 951946795#2 951946795#3 951946795#4 951946795#6 951946795#7 951946795#9 -951946796#1 951946804 951946804.28 951946804.31 951946804.34 951946804.37 951946795#11 951946795#11.34 951946795#11.40 951946795#11.45 896786337#10 896786337#10.21 -951887700#20 671756019#0 671756019#1 671756018 951961233#0 951961233#0.22 951961233#0.27 951961233#0.32 951961233#0.37 951961233#1 -951878265#2 -951878265#1 -951878266#5 -951878266#5.22 -951878266#5.29 -951878266#5.37 -951878266#4 -951878266#4.37 -951878266#2 -951878266#1 -951878266#1.39 -951878266#1.47"/>
</vehicle>
<vehicle id = "veh8" type= "veh_passenger" depart="7210" >
<route edges =" 951370989 951370989.40 951370989.47 951370989.53 951370989.56 951370989.62 951370989.64 951370989.67 -902433320#1 -902433320#0 902433321#2 -45342799#20 -45342797#4 -951368600#1 -951368603#1 951368601#0 -951368602#1 -951368602#0 45342835#1 45342835#2 45342809#2 45342809#3 45342809#4 45342809#5 45342809#6 45342809#7 45342809#8 45342809#9 -45342821#1 -45342821#1.44 -45342822#2 -45342822#1 -45342822#0 -45342831#2 951421967 -951417480#0 45342805#4 45342823#0 45342823#1 45342823#2 45342828#1 45342828#1.100 -45344273#6 -45344273#6.40 -45344273#6.59 -951384598#3 -951384598#2 -951404491 -951404491.16 -951404491.28 -951404491.40 -951404491.51 -951384599#0 -700249213#7 -700249213#7.47 -700249213#7.56 -700249213#7.59 -700249213#7.61 -700249213#7.65 45344290#0 45344290#0.48 45344290#0.50 45344290#0.52 45344290#0.55 45344290#1 45344292#4 700249213#5 700249213#5.63 -897252869#3 -897252869#2 -897252869#1 -45344315#0 -45344315#0.31 -951404492 700249212#3 45342808#9 45342808#10 951370965#0 951370965#0.26 951370965#0.30 951370965#0.33 951370965#0.37 951370965#0.40 951370965#1 951370965#1.28 951370965#1.49 45344314#2 700249213#0 951439195 897252867#1 897252867#1.15 897252864#0 897252864#1 897252864#3 -897252871 -897252870 -45344310#2 -45344310#1 951404484#0 951404484#0.58 951404484#0.86 951404484#0.91 951404484#0.94 -951404476 -951404476.16 -951404476.32 -951404476.50 -951404476.59 -951404476.68 -951404476.84 -951404476.93 -951404476.101 -951404476.106 -951404476.113 971495602#7 971495602#7.32 971495602#7.56 971495602#8 971495602#8.24 971495602#8.86 45340579#6 -908560887#8 -908560887#8.9 -908560887#8.22 -908560887#8.29 -908560887#8.34 -908560887#8.39 -908560887#8.43 -908560887#8.49 -908560887#8.57 -908560887#8.62 -908560887#8.67 -908560887#8.71 -951404467#1 -951404467#1.22 -951404467#1.27 -951404467#1.32 -951404467#1.35 -951435496#1 -951435496#1.16 -951435496#1.17 -951435496#1.18 -951435496#1.19 -951435496#1.20 -951435496#1.22 -951435496#1.27 -951435496#0 -951435494 -951435494.8 -951435494.19 -951435494.25 -951435494.33 -951435494.43 -951435494.50 -951435494.55 -951435494.60 -951435494.65 313316104#5 313316104#5.24 313316104#5.44 313316104#5.58 -45378650#5 -45378650#5.11 -45378650#4 45378645#0 45378645#0.44 -908846596#3 -908846595#1 908846594#0 45378650#0 45378650#0.11 -908846596#1 -908846596#0 -908846596#0.31 908560901#7 908560901#8 908560901#8.23 908560901#8.56 -313316104#0 -313316082 -45378649#12 896786296#0 -951355298#2 -951355298#2.7 -951355298#2.9 -951355298#2.11 -951355298#2.15 -951355298#2.38 -951355298#2.43 -951355298#1 -951355298#1.5 -951355298#1.10 -951355297#1 -951355296 951354759#1 951354759#1.10 951354759#3 951354759#4 951354759#4.40 -896786262#4 -896786262#4.31 -896786262#3 -896786262#3.9 -896786258#4 -896786258#2 -896786258#2.22 -896786258#0 -896786259#1 -896786259#1.16 -896786259#1.36 -896786259#1.39 -896786259#1.42 -896786259#1.44 -896786259#1.47 -896786259#1.55 -896786259#1.98 -896786260#6 -896786260#6.19 -896786260#4 -896786260#4.11 896786257#1 896786266#5 -896786260#0 -896786260#0.52 896786257#4 909024248 909024248.50 45378665#5 45378665#5.9 45378665#7 45378665#7.25 45378665#7.48 45378665#8 -896786283#4 -896786283#4.15 -896786283#4.56 -896786283#3 -896786283#3.11 -909024287#2 -909024286 -909024289#2 -909024289#1 -909024289#1.25 -909024289#1.69 -909024289#1.74 -909024289#1.90 -909024289#1.103 -909024289#1.130 -909024289#0 -909024289#0.2 -909024289#0.5 -909024289#0.10 896786293#2 896786293#2.8 896786293#2.28 896786293#2.36 896786293#2.45 896786293#2.48 896786293#2.52 896786293#3 896786293#3.29 896786293#4 896786257#7 896786257#7.17 896786257#7.37 896786257#7.44 896786257#7.49 896786257#7.54 -45378665#1 -45378665#0 -45378665#0.39 -45378665#0.75 -896786335#14 -896786335#14.27 -896786335#13 -951983587#9 -951983587#8 -951983588#1 -951983588#0 -951983586#0 -896786303#0 896786311#13 896786311#13.28 -896786335#10 -896786335#10.38 -896786322 -896786322.14 -896786322.21 -896786323#1 896786325#4 896786325#4.12 896786335#6 896786335#7 -951976009#1 -951976006#2 -951976006#1 -951976006#0 -896786315#2 -896786316#3 -896786316#2 -896786316#1 -896786316#1.33 -896786314 -951930663#1 -951930663#0 877395784#12 877395784#13 877395784#13.21 951946817#0 951946816#11 951946833#1 951946833#2 951946833#3 -951946817#5 -951951636 951951635#2 951946818#2 -951946819#1 -951946819#0 -951946816#5 -951946816#5.8 -951946816#5.11 -951946816#5.14 -951946816#5.18 -951946816#4 951946844 877399011#1 951946810#2 -896786337#14 -896786337#14.40 -896786337#14.111 -952365020 -952365021 -951878231#2 -951951643#6 -951951643#5 951868611#0 -951878231#0 951951645 -951951643#3 -951951643#2 876509484#2 -951951642#1 -951951648#1 951951649 951878263#7 951878263#8 951878230#4 -951891772#4 -951891772#3 -951891772#2 -951891774 951891771#2 -951878270#0 -951878270#0.10 -951878270#0.13 -951878270#0.16 -951878270#0.20 -951878269#10 -951878269#9 951891767 -951891766#0 -950288028#0 -951878269#4 951878272#0 951878272#1 951878272#2 -951891763#2 -951887659#1 -951887659#0 951887661#0 951887661#1 951887661#2 951887663#3 -951887660#0 877401978#1 951878266#0"/>
</vehicle>
<vehicle id = "veh9" type= "veh_passenger" depart="10815" >
<route edges =" 951370989 951370989.40 951370989.47 951370989.53 951370989.56 951370989.62 951370989.64 951370989.67 -902433320#1 -902433320#0 902433321#2 -45342799#20 -45342797#4 -951368600#1 -951368603#1 951368601#0 -951368602#1 -951368602#0 -45342835#0 -45342797#0 -45342834#1 -45342834#0 44740902#8 -45342798#6 45342813#0 45342817#0 45342817#1 -45342803#7 -45342803#6 -45342803#5 -45342803#4 -45342803#3 -45342803#2 -45342802#2 -45342802#1 -671399056 671399058#2 -44740901#3 -44740901#2 -671399049#1 -671399049#0 -671399051#0 44740942#2 44740942#2.58 -874839172#0 -44740943 -313316091#20 -313316091#19 -313316091#18 -313316091#18.26 -313316091#17 -313316091#16 -313316091#14 -313316091#14.20 -313316091#12 45378690#0 45378690#0.38 45378690#1 -45378689#2 45378688#0 45378688#1 45378687#1 45378640#1 45378658#3 -45378683#3 -45378683#2 45378655#2 45378655#3 -45378685#2 -45378685#1 45378654#0 45378654#1 45378657#4 -44739163#20 -44740919#1 -44740919#0 44740920#8 -313316091#0 -313316091#0.27 -313316091#0.72 -313316091#0.80 -971495601#9 -971495601#9.28 -971495601#8 -971495601#7 44740916#12 44740916#13 909019768#0 909019768#0.14 909019768#0.25 -909019765 -909019766#0 909019767#1 909019767#1.24 909019767#1.35 -971495601#5 -971495601#3 -971495601#1 -971495601#0 -313316086 -44739144#26 -903953334#9 -903953334#9.24 -903953334#9.50 -903953334#9.58 -903953327 -903953327.7 -903953327.18 -903953327.71 -903953326#0 -44739144#22 -896786294#12 -896786294#12.19 -896786294#12.25 -896786294#12.30 -896786294#12.36 -896786294#12.41 -896786294#11 -896786294#11.13 -896786294#10 -896786294#8 -896786294#7 -896786294#7.20 -909024278#1 -909024278#1.22 -909024280#0 -896786295#10 -896786271#2 -896786271#2.29 -896786271#1 -896786275#2 -896786275#2.8 -896786275#1 -896786275#1.18 896786269#7 -951421977 896786268#3 896786295#13 -896786294#5 -896786294#5.6 -896786294#5.10 -896786294#5.13 -896786294#5.16 -896786294#5.19 -896786294#5.22 -896786294#4 -896786294#3 -896786294#3.26 -896786294#2 -896786294#2.7 -896786294#0 -896786294#0.13 -877398366#16 -896786290#5 -896786290#4 -896786290#4.18 -896786290#3 877396860#14 877396860#14.38 -904286384#2 -904286384#2.34 -904286384#1 -904286384#1.25 -904371470#1 -904371470#0 904371473#1 904371473#1.24 904371473#3 -904286388#0 904286386#7 951973455 -951973456#0 -904286387#2 -904286387#2.12 951973453#0 951973453#1 -951992361 -904371488#6 -904371488#5 -904371488#4 904371486#0 904371486#1 904371487#0 904371487#1 904371487#1.29 -904286385#6 951973468#1 951973468#2 951973468#2.24 951973468#2.27 951973468#2.29 951973468#2.32 904371490#1 904371490#2 951973470#0 -951973471#4 -904371456#2 -904371456#2.22 -951973471#1 -951973471#0 -671191680#1 -671191680#1.13 -671191680#0 -671191680#0.38 -671191680#0.44 -671191680#0.48 -671191680#0.53 -671191680#0.58 -671191680#0.63 -671191680#0.76 -896786327#0 -877395784#21 -877395784#21.14 -951951638#10 -951951638#10.18 951973434#1 951951639#3 951951639#4 -951973432#1 -951951638#7 951946800#0 951951639#7 -951973430#1 -951951638#4 -951951638#3 952000398 951951639#13 -951946794#0 951946792#1 896786337#8 896786337#8.8 896786337#10 896786337#10.21 -951887700#20 671756019#0 671756019#1 671756019#2 671756019#2.43 951961253 951961253.63 951961253.68 951961253.73 951961233#1 951961233#3 951961233#3.5 951961233#3.10 951961233#3.14 951961233#3.19 951961244 951961244.37 951961244.40 951961244.43 951961244.47 -951961242#1 -951961242#0 -951961240#1 -951961245 951891772#0 -951891773 -951891771#0"/>
</vehicle>
<vehicle id = "veh10" type= "veh_passenger" depart="10815" >
<route edges =" 45342801#5 45342801#5.32 902433317#3 902433317#4 902433317#6 902433317#7 902433317#8 902433317#8.29 951368593#1 972507120#2 972507120#3 -951369746#4 -951369746#4.24 -951369746#4.27 -951369746#4.29 -951369746#2 -951369746#2.3 -951369746#2.36 -951369746#2.42 -951369746#2.45 -951369746#2.50 -951369746#1 -951369746#1.3 -951369746#1.9 -951369746#1.18 -951369746#1.26 -951369746#1.35 -951369741#4 -951369741#2 -951369741#2.8 -951369741#2.11 -951369741#2.13 -951369741#2.16 -951369741#2.19 -951369741#2.22 -951369741#1 -951369741#1.20 -951369741#1.25 -951369741#1.30 -45344273#26 897252876#0 897252876#0.16 897252876#0.57 897252876#1 897252876#1.54 897252876#3 897252876#4 45344320#2 45344320#3 45344320#4 45344320#5 45344320#5.26 950455054 -45344336#8 -45344336#8.20 -45344336#8.27 -45344336#8.33 -45344336#7 -45344336#7.6 -700254525#12 -700254525#12.32 -950400191 -950400191.5 -950400191.10 -950400191.16 -950400191.25 -950235691#0 -950235691#0.4 -950235690#0 -950235690#0.14 -700254525#9 -700254525#8 950235689#0 950400192#1 -699875131#3 -950400194#2 950235689#2 45344335#1 -699875131#1 699875130#0 699875130#0.20 699875130#1 -897252883#1 -897252883#0 -897252883#0.7 -897172091#1 -897172091#0 -45344294#6 -45344294#6.9 -45344294#6.25 -45344294#5 -45344294#5.7 -951370959 -951370959.20 -951370959.22 -951370959.23 -951370959.27 -951370959.28 -951370959.29 -951370959.30 -951370959.31 897252858#0 897252858#1 897252858#2 897252858#3 -45344286#12 -45344299 -45344299.40 -45344299.79 -45344299.80 -45344299.82 -45344299.84 -45344299.86 -45344299.89 -45344299.97 -45344299.99 -45344299.101 -45344299.106 -896892971#1 -896892971#0 -896892971#0.14 -896892971#0.28 -896892971#0.54 -896892971#0.88 -45344286#8 -45344286#7 -45344286#6 -45344286#6.52 -45344286#4 -45344286#4.11 -45344286#3 -45344286#3.9 -45344286#3.30 -45344286#3.45 -45344286#2 -45344286#2.12 -45344286#2.42 951440588 951440588.19 951440588.23 951440588.28 951440588.33 951440588.54 951440588.59 951440588.67 951440588.90 951440588.105 951440588.109 951440588.113 951440588.119 951440588.124 951440588.129 951440588.138 951440588.140 951440588.143 951440588.148 951440588.162 951440588.168 951440588.174 951440588.183 951440588.193 951440588.221 951440588.225 951440588.229 951440588.234 951440588.238 951440588.244 951440588.248 951440588.251 951440588.254 951440588.258 702632122#3 -702632123#3 -702632123#2 -702632123#1 -702632123#1.4 -951404495 -951384610#0 45344272#12 45344272#13 45344272#13.4 45344272#13.35 45344298 896892974 971495602#11 971495602#12 971495602#12.26 971495602#12.77 951442813 951442812#0 -896786335#50 -896786335#49 -896786247#9 -896786247#9.8 -896786247#9.17 -896786247#9.75 -896786247#9.157 -896786247#8 -896786247#7 -896786247#7.2 -896786247#6 -896786247#6.66 -896786247#6.103 908869245 908869245.23 -908869249#0 -908869249#0.10 -896892977#2 908869250#5 -908869248#1 -908869248#1.4 -908869248#1.6 -908869248#1.9 -908869248#1.11 -908869248#1.19 -951358827#2 -951358826 -951358826.10 -951358826.13 -951358826.16 -951358826.19 -951358826.36 -951358826.40 -951358826.44 -951358826.49 -896786335#42 -896786335#42.22 -896786335#41 -896786335#40 -896786335#39 -896786335#39.27 -908869251 -908869251.5 -908869251.7 -908869251.10 -908869251.12 -908869251.30 -908869251.35 -908869251.40 -908869251.44 -908869251.48 -908869251.66 -908869251.70 -908869251.73 -908869251.76 -908869251.78 896786248#1 896786248#1.30 896786248#1.43 -951349917#1 -951349917#1.14 -951349917#1.29 -951349917#1.41 -951349917#1.59 -951349918 -951354772#1 -951354772#1.39 -951354772#1.50 -951354772#1.59 -951354772#0 -951354772#0.6 -951355289#1 -951355289#0 -896893028#1 -896893028#1.14 -951998766#1 -951998766#1.58 -951998766#1.64 -951998766#1.69 -951998766#1.73 896892983#10 896892983#10.17 896892983#11 877388646#5 877388646#5.32 896786297#3 896786297#4 896786297#4.10 896786297#4.18 896786297#4.21 896786297#4.23 896786297#5 896786297#5.72 -896892990 -896892991#0 -896892991#0.12 -896893005#2 -896893005#2.6 877388728#11 -896893014#1 896893015#1 896893015#1.26 896893015#2 896893015#3 -896893018#0 877388728#14 -896786335#24 -896893004#5 896893002 896893002.42 -896786335#22 -896786335#21 -896786335#21.41 -896786335#19 -896786335#18 909024244#0 909024244#1 909024244#1.7 909024244#1.41 909024244#1.69 909024250#4 909024250#5 -909024246 -909024246.27 -909024246.63 -909024246.70 -909024246.79 -896786335#15 -896786300#3 -896786300#3.27 -896893012#1 -896893012#0 -896893012#0.11 -896786303#4 -896786303#4.22 -896786303#3 896786302#0 896786302#0.18 896786302#0.77 896786302#1 896786304#6 896786304#7 896786304#7.11 951983589#1 951983589#1.89 951983589#1.104 951983589#1.119 951983587#3 951983587#3.8 951983587#4 951983587#4.2 951983587#4.11 951983587#4.15 951983587#4.18 951983587#4.21 951983587#4.31 951983587#5 -951983620#1 -951983620#0 951983592#1 951983592#3 951983592#3.4 951983592#3.8 951983592#3.24 951983592#3.30 -951988579 951988578#1 -951988576#1 -951988574#0 896786310#6 896786310#6.17 951983592#5 951983610 -951983611#1 -951983609#0 -951983608#1 -951983608#0 -951983608#0.19 -951983608#0.23 -951983608#0.26 896786310#8 896786310#8.5 896786310#9 896786310#9.40 896786310#9.54 896786310#9.61 -951983616#2 951983617#0 951983617#0.43 877398739#1 -951983587#1 -951983587#0 -951983587#0.39 -951983587#0.45 -951983587#0.51 -951983587#0.56 -896786311#8 -896786311#7 -896786311#6 -896786311#6.24 -896786311#4 -951930671#3 -951930671#3.23 -951930671#2 -951930671#2.8 951930676 951930676.46 951930676.49 951930676.51 951930676.55 -951930673#2 -951930673#2.6 -951930673#1 -951930673#0 -896786320#1 -896786320#0 896786315#2 896786315#4 896786318 896786318.40 -896786319#0 -896786319#0.11 -896786335#4 -896786335#4.18 -896786335#3 -896786335#3.10 -896786335#2 951976001#0 951976001#1 -951976000#3 -951976000#2 -951976000#2.3 -951976000#2.6 -951976000#2.8 -951976000#2.12 -951976000#1 -951975999 877395784#15 -951946803#2 951946816#14 951946795#0 951946795#0.4 951946795#0.7 951946795#0.9 951946795#1 951946795#2 951946795#3 951946795#4 951946795#6 -951946798#2 951951639#10 951946797 951946795#9 951946795#10 951946795#11 951946795#11.34 951946795#11.40 951946795#11.45 -951887683 -951887684 -951887682#6 -951887682#5 951887686#0 951887686#1 -671756019#4 -951961235 951961234#1 -951878265#2 -951878265#1 -951878266#5 -951878266#5.22 -951878266#5.29 -951878266#5.37 -951878266#4 -951878266#4.37 -951878266#2 -951878266#1 -951878266#1.39 -951878266#1.47"/>
</vehicle>
<vehicle id = "veh11" type= "veh_passenger" depart="10815" >
<route edges =" -45342801#4 -45342801#3 903341082#0 903341082#0.10 -672813677#4 -672813677#4.16 -672813677#2 -672813677#1 -672813677#1.10 -672813677#1.22 -672813677#0 -672813677#0.12 -672813677#0.41 45342799#25 45342799#25.7 45342799#25.22 45342799#26 45342799#27 45342799#27.15 45342799#27.20 45342799#27.25 45342799#27.36 972507120#0 -903341083#3 -903341083#2 -903341083#1 -951368605#2 -951368605#1 951368604 -45342801#1 45342811#0 45342811#1 45342811#2 45342811#2.66 45344273#23 45344273#23.11 -951379890#1 -951379890#1.37 -951379890#1.47 -951379890#0 -951379890#0.11 -951379890#0.26 -951379890#0.32 -951379890#0.35 -951379890#0.37 -951379890#0.41 -951379890#0.82 -951379890#0.84 -951379890#0.86 -951379890#0.88 -951379890#0.89 -951379890#0.91 -951379890#0.93 45344320#1 897252876#5 897252876#5.34 -45344322#2 -45344322#1 -951404485 45344321#1 897252876#7 897252876#8 897252876#9 897252876#10 -45344293#3 -45344293#2 -45344293#2.10 -45344293#2.11 -45344293#2.12 -45344293#2.14 -45344293#2.15 -45344293#2.16 -45344293#2.18 -45344293#1 -45344293#1.78 -45344293#0 -45344273#13 -45344273#12 -45344273#11 -45344273#10 -45344273#10.42 -45344273#9 -45344273#8 -45344273#8.10 -45344273#7 -45344273#7.22 -45344273#6 -45344273#6.40 -45344273#6.59 -45344273#5 -45344273#5.6 -45344273#5.15 -45344273#4 -45344273#4.8 -45344273#4.37 -45344273#3 -45344273#3.6 -45344273#3.14 -45344273#3.31 -45344273#3.48 -45344273#2 -45344273#2.6 -45344273#2.24 -951404493 -951404493.17 -951404493.21 -951404493.24 -951404493.26 -951404493.29 -951404493.32 -951404493.38 -951404493.57 -951404493.66 -951404493.74 -700249212#0 700249213#10 700249213#11 -45342808#9 -700249212#3 -951417468 -951417468.27 -951417468.30 -951417468.32 -951417468.34 -45342808#7 -45342808#7.16 -45344273#0 -897252881 -45378637#10 -45378637#9 -951404484#10 -951404483#1 -951404474#1 951404473 -951404484#6 -951404484#5 -951404484#4 -951404484#4.8 -951404484#4.11 -951404484#4.13 -951404484#4.15 -951404484#3 -951404484#3.5 -951404484#3.9 -951404484#3.14 -951404484#3.25 -951404484#3.32 -951404484#2 -951404484#2.19 -951404484#2.23 -951404484#2.26 -951404484#2.29 -951404476 -951404476.16 -951404476.32 -951404476.50 -951404476.59 -951404476.68 -951404476.84 -951404476.93 -951404476.101 -951404476.106 -951404476.113 971495602#7 971495602#7.32 971495602#7.56 971495602#8 971495602#8.24 971495602#8.86 -313316104#6 -313316104#5 -313316104#5.12 -313316104#5.27 -313316104#5.46 -313316104#4 -313316104#4.4 -313316104#4.18 -313316104#4.31 -313316104#4.41 -313316104#4.56 -313316104#3 -313316104#2 -313316104#2.13 -313316104#2.35 -313316104#2.44 -313316104#1 -313316104#0 -313316082 -45378649#12 -45378649#11 -45378649#11.22 -45378649#10 -45378649#10.20 -45378649#9 -45378649#9.7 -45378649#7 -45378649#7.4 -45378649#5 -45378649#5.24 -45378649#5.57 -45378649#5.68 -45378649#3 -45378649#3.8 -896786265#8 896786264 896786264.45 896786264.99 896786263#1 896786263#2 896786263#2.22 896786263#4 896786263#6 896786263#7 896786263#7.19 -896786249#0 -896786249#0.32 -896786249#0.71 -896786265#0 909024253#0 951995490#0 909024242 -896786293#6 -896786293#5 -896786293#5.20 896786257#7 896786257#7.17 896786257#7.37 896786257#7.44 896786257#7.49 896786257#7.54 -45378665#1 909024239#0 909024239#1 909024239#1.17 909024239#2 909024239#2.40 877398366#3 -951995475#3 -896786288#1 -896786291#0 -896786291#0.44 896786293#0 909024289#0 909024289#0.3 909024289#0.8 909024289#0.10 -877396033#7 -877396033#7.19 -877396033#7.29 -877396033#7.75 -877396033#5 -877396033#5.40 896786286#4 896786286#4.10 896786286#4.60 909024289#4 909024289#5 909024284 909024284.27 -896786269#0 -896786283#0 -896786283#0.23 896786285 896786285.95 -877398366#9 -877398366#8 -877398366#8.18 -877398366#8.84 -904371459 -904371459.17 -904371459.33 904371460#2 904371460#2.34 904371458#0 904371458#0.18 904371458#1 -877396860#4 -896786328#3 -896786328#3.70 -896786328#2 -896786328#2.49 -896786328#1 -896786328#0 -896786328#0.177 -877395784#20 -877395784#19 -951946816#15 -951946816#14 -951946816#13 -951946816#13.3 -951946816#13.8 -951946816#12 -951946816#11 -951946816#10 -951946816#9 -951946816#7 -951946820#1 -951946820#0 951946819#1 -951946818#2 -951946818#0 951946833#9 951946833#9.22 -951951630 -951946806#1 -951946806#1.48 -951946806#1.55 -951946806#1.61 -951946806#1.69 -951946806#1.82 -951946806#1.90 -951946806#1.98 -951946806#0 -952365020 -952365021 -951878231#2 -951951643#6 -951951643#5 -951951643#4 -951951643#3 -951951646 -951951642#2 -951951642#1 -951951642#0 -951878263#5 -951878269#15 -951878269#14 -951878269#13 -951878269#12 -951878269#10 -951878269#9 -951878269#7 -951891764#4 -951891764#2 -951887654#3 951891765#2 951891765#3 -951887660#3 -951887662 951887661#2 951887661#3 951878266#0"/>
</vehicle>
<vehicle id = "veh12" type= "veh_passenger" depart="14420" >
<route edges =" 951370989 951370989.40 951370989.47 951370989.53 951370989.56 951370989.62 951370989.64 951370989.67 -902433320#1 -902433320#0 902433321#2 45342799#21 45342809#0 45342809#1 45342809#2 45342809#3 45342798#3 -45342837 -45342836#0 45342818#2 45342818#3 -45342814#4 -45342814#3 -45342816#1 951370984#1 45342813#2 -45342814#1 44740902#11 44740902#12 44740902#13 44740957#4 -671399051#1 -671399051#0 -44740942#1 -44740942#0 974189220#5 902433296 44740967#0 44740967#1 44740967#2 44740967#3 44740929#1 44740929#2 44740929#3 672215965#0 672215965#0.11 672215965#1 -44740922#0 -313316091#16 45378639#0 45378639#0.48 45378639#1 45378639#1.38 45378658#0 45378658#1 45378641#0 45378641#1 45378641#1.76 -45378640#3 -45378640#2 -45378640#1 -45378640#0 45378655#1 45378655#2 -45378684#1 -45378684#0 -45378684#0.58 -45378684#0.107 313316091#6 -44739167#15 -44739167#15.17 44740949#0 44740949#1 44740949#2 -44739163#19 -44740918#2 -44740918#1 -44740918#0 44740920#6 -951358792 -951358792.26 -951358792.42 -951358792.53 -951358792.66 896892969#18 -971495601#9 -971495601#9.28 44740934#0 -668599375#2 -668599375#2.17 -668599375#1 -668599375#1.9 -668599375#0 -909019783 -909019783.98 -971495601#3 -971495601#1 -971495601#0 -313316086 -44739144#26 -44739144#24 909024272#0 909024272#0.29 909024273#0 909024273#0.33 909024273#1 909024273#2 909024273#3 -896786296#17 -896786296#17.6 -896786296#17.12 -896786296#17.79 -896786296#16 -951346848#1 -951346848#0 -951346848#0.9 -951346848#0.18 -951346848#0.28 -951346848#0.36 909024276#2 909024279#2 909024279#2.24 909024279#3 909024279#4 909024279#4.20 -909024280#1 -909024280#1.18 -909024280#0 896786295#12 896786295#12.9 896786295#13 -896786294#5 -896786294#5.6 -896786294#5.10 -896786294#5.13 -896786294#5.16 -896786294#5.19 -896786294#5.22 -896786294#4 -896786294#3 -896786294#3.26 951992347 -896786277#2 -896786277#0 877398366#16 904286386#0 -909024293#1 -909024293#1.14 -909024293#1.28 -909024290 -909024290.32 -877396860#16 -877396860#15 -877396860#14 -877396860#14.23 -896786290#2 -896786290#1 -896786290#1.17 -904286381#6 -904286381#4 -904286381#3 -904286381#3.6 -904286381#3.20 -904286381#2 -904286374 -904286375#2 -904286375#2.19 -904286375#1 -904286372#0 904286373#4 -904286385#6 -904286385#5 -904286385#5.9 -904286385#4 -951973457 -904371492#4 951973476#0 951973476#1 -951973471#2 -951973471#2.11 -951973471#2.14 -951973471#2.17 -951973471#2.20 -904371456#1 -904371456#0 -904371456#0.17 -671191680#0 -671191680#0.38 -671191680#0.44 -671191680#0.48 -671191680#0.53 -671191680#0.58 -671191680#0.63 -671191680#0.76 -896786327#0 -877395784#21 -877395784#21.14 -951951638#10 -951951638#10.18 951973434#1 951951639#3 951973426#1 951973426#2 -952002224#6 -952002224#5 -952002224#5.5 -952002224#4 -952002224#4.27 -952002224#3 -952002224#3.30 -952002224#3.48 -952002224#3.80 904286410#0 904286410#0.33 904286410#1 -904286411#3 951874850#0 -951874849#1 -951874849#0 -951874848#0 -952002224#1 896786337#4 896786337#5 896786337#5.11 -951951639#15 -951951639#14 -951946794#0 951946792#1 896786337#8 896786337#8.8 896786337#10 896786337#10.21 -951887700#20 -951887700#19 -951887700#18 -951887700#17 -951887700#17.17 -951887700#16 -951887700#15 -951961243 -951961242#0 -951961240#1 -951961245 951891772#0 951891772#1 -951891774 -951891771#1 -951891771#0"/>
</vehicle>
<vehicle id = "veh13" type= "veh_passenger" depart="14420" >
<route edges =" 45342801#5 45342801#5.32 902433317#3 902433317#4 951368598#0 -951381446#0 951368595#1 951368595#1.17 951368595#1.34 902433317#8 902433317#8.29 951368593#1 972507120#2 972507120#3 -951369746#4 -951369746#4.24 -951369746#4.27 -951369746#4.29 951369745#0 -951381440 -951369737#0 -951369737#0.5 -951369737#0.11 -951369746#1 -951369746#1.3 -951369746#1.9 -951369746#1.18 -951369746#1.26 -951369746#1.35 -951369746#0 -951369746#0.7 -951369748#0 -951369748#0.14 -951369748#0.17 -951369748#0.19 -951369748#0.22 951379886#1 951379886#1.14 951379886#2 951379886#2.14 951379886#2.19 951379886#2.22 951379886#2.25 951379886#2.28 -951369741#1 -951369741#1.20 -951369741#1.25 -951369741#1.30 45344273#27 45344273#27.17 45344273#28 45344273#29 45344273#29.12 45344273#29.34 45344273#30 45344273#30.8 45344273#30.25 45344273#30.39 897252882#1 897252882#1.10 897252882#2 897252882#2.30 897252882#2.48 950755157 897252886#4 897252886#4.10 897252886#4.25 897252886#4.39 45344273#32 45344273#32.22 45344273#32.44 45344273#33 950780326#0 950780326#0.30 950780326#0.63 950780326#1 950780326#1.17 950780326#1.24 950780326#1.29 950780326#1.45 950780326#1.86 950780326#2 45344278#3 -950238182#3 950238181#3 950238181#3.17 950238181#3.25 950238181#3.34 950238181#3.40 950238181#3.49 -950238180#0 45344278#5 -950806855#5 -950806855#3 -45344277#1 -45344277#0 -45344276#2 903373125#0 950759345 950759345.20 950759345.25 950759345.28 950759345.33 950759345.37 950759345.41 950759345.45 -903373124#0 950235713#0 950235713#1 -950235714#2 -950235714#1 -950759347#1 -950759347#1.4 -950759347#1.8 -950759347#1.13 -950759347#1.29 -950759347#1.34 -950759347#1.39 -950759347#1.44 -950759347#1.51 -950759347#1.81 -950759347#1.85 -950759347#0 -950759347#0.3 897252886#0 897252886#0.21 897252886#0.44 -950235707#1 -950755153 -950755153.14 -950755153.32 -950755153.39 -950755153.46 -950755153.54 45344271#22 45344271#22.32 45344271#24 -950757963#1 -950757964#2 950757962#0 950757962#0.33 950757962#0.36 950757962#0.39 950757961 -950757964#0 950235711#3 951132942#3 -950757968 -950757969#4 -950757969#3 950757966#0 950757966#1 -951132942#6 -950757960#1 -950757960#0 950757959#0 950757958#0 950757958#0.22 950757958#1 -950759350#2 -902433292#6 -902433292#5 -902433292#4 950235714#4 -950780327 950235719#4 -902433292#2 -902433292#1 -902433292#1.15 -902433292#0 -902433292#0.16 45344276#4 950235725#0 -950235726#0 -950235727#6 -950235727#5 -950235727#4 -950235727#3 -950235727#2 -950235727#2.16 -950235727#1 -950235727#1.45 -950235727#0 950641816#6 950641816#7 950641816#8 950641816#9 950235732#0 950235732#1 950235732#2 950235732#3 950641811#0 950641811#0.21 950641811#0.28 950641811#1 950641811#1.3 950641811#1.11 950641811#1.19 950235730#0 950235730#0.10 950235730#0.18 950235730#0.25 950235729#4 950235729#5 -45344285#4 -45344285#2 -45344285#1 950235732#5 950235732#5.16 951077734#0 -950241846#1 -950241846#1.22 -950241846#0 45344284#11 45344284#12 45344284#12.58 950872160#0 950872160#1 950872160#1.50 950872160#1.69 950872160#2 950872160#2.4 950872160#3 950872160#4 950872160#4.25 950241832#0 950241832#1 950241832#2 950241832#2.33 950241832#3 -951014858#3 -951014858#3.18 -951014858#3.23 -951014858#3.27 -951014858#3.30 -951014858#3.35 951014861#0 -950241828#1 -950241821#4 -951014858#0 -951014858#0.81 -950929127#4 -950929127#4.20 -950929127#3 -950929127#3.15 950241831#0 950241831#1 950241831#2 951014859 951014859.40 951014859.44 951014859.47 951014859.50 951014859.58 951014859.60 951014859.62 951014859.64 950241825#4 951014861#4 951014861#4.41 951014861#4.44 951014861#4.47 951014861#4.51 951014868#1 950241823#8 -951014855#2 -950241819#5 -950241819#4 -950241819#3 950241821#10 950241821#10.52 950241821#11 950241821#11.4 950241821#11.9 950241821#12 -951014869 -950241819#0 950929121#1 950929121#1.8 950929121#1.24 950929121#1.32 950929121#1.39 -950241818#0 45344271#4 -902433322#2 950241847#2 45344284#9 45344271#6 45344271#6.35 45344271#7 45344271#7.34 -950641813#1 -950641813#1.14 -950641813#1.27 -950641813#1.43 -950641813#1.59 -950641815#1 -950641815#1.35 -950641815#1.42 -950641815#1.47 -950641815#0 -950641815#0.6 -950641816#11 45344271#10 -897252880#6 -897252880#6.46 -45344277#9 -950806850#1 -950806860#1 -950235723#0 45344271#13 45344271#13.28 -950238184#4 950238180#2 950238180#3 950238180#3.28 950238180#3.31 950238180#3.34 950238180#3.56 950238184#1 950238184#2 950238184#2.9 950238184#2.18 950238184#2.27 -950780323 -950780323.12 -950780323.20 -950780323.27 -950780323.33 -950238182#1 -950238182#1.7 -950238182#1.15 -950238182#1.25 -950238182#0 950755158 950755158.30 950755158.35 950755158.39 950755158.45 -950238179#0 950238178#4 950238178#4.14 -45344278#1 -45344278#0 -45344278#0.14 -45344278#0.18 -45344278#0.21 45344273#35 45344273#35.26 45344273#36 45344273#36.18 -950235701 -950732876 950235697#2 950235695#1 950235695#2 950235694#1 950235694#2 950235694#3 950235694#4 950235694#4.8 950235694#4.19 950235694#4.29 950235694#4.38 950235694#4.48 950235694#4.103 950235694#4.115 950235694#4.119 950235694#4.123 950235694#4.127 951381436 951381436.26 951381436.34 951381436.39 951381436.45 -897252875#0 -897252875#0.4 -897252875#0.15 -897252875#0.35 -45344336#9 -45344336#9.10 -45344336#9.61 -45344336#9.126 -45344336#9.147 -950455054 45344320#6 45344320#6.8 -45344335#7 -950235691#2 -950235691#2.50 -950235691#1 950400191 950400191.10 950400191.18 950400191.24 950400191.29 -700254525#11 950235690#0 950235690#0.11 950235690#1 45344335#4 -903341090 -897172091#10 -897172091#9 -897172091#8 -897172091#6 -897172091#5 -897172091#4 -897172091#3 -897172091#1 -897172091#0 -45344294#6 -45344294#6.9 -45344294#6.25 -45344294#5 -45344294#5.7 -45344291#4 -45344291#4.36 -951370958 45344288#1 45344288#1.10 45344288#1.64 45344288#1.123 45344288#1.180 45344288#2 -45344295#0 45344292#3 45344290#2 -951370976#1 -951370975 -45344304#10 -45344304#9 -45344305#1 -45344305#0 45344295#2 45344295#2.63 45344295#2.112 897252857 897252858#2 897252858#3 -45344286#12 -45344286#11 -45344286#9 -45344286#9.15 -45344286#9.41 -45344286#9.67 -45344286#8 -45344286#7 -702632122#4 -702632122#4.41 -702632122#4.57 -702632122#4.62 -702632122#4.67 -702632122#4.71 -702632122#4.73 -702632122#4.77 -702632123#3 -702632123#2 -702632123#1 -702632123#1.4 -702632123#0 45344272#13 45344272#13.4 45344272#13.35 45344298 896892974 971495602#11 971495602#12 971495602#12.26 971495602#12.77 951442813 951442812#0 -896786335#50 -896892981#13 -896892981#13.5 -896892981#13.13 -951349911#1 -951349910#1 -951349910#1.29 951354767 -896892981#10 -896892981#10.8 -896892981#9 -896892981#8 -896892981#8.18 -896892981#8.50 -896892981#8.78 -951358829#1 -951358829#1.27 -951358829#1.80 950260764#0 950260764#0.14 950260764#0.20 950260764#0.27 950260764#0.78 950260764#0.85 950260764#0.90 950260764#0.94 950260764#0.98 950260764#1 950260764#2 950260764#3 -950233986#2 -950233986#0 -896893025#15 -896893025#15.11 -950233985 951132945#1 -951349908#0 -950260765#10 951998783#0 -876614662#0 -952213575#10 -951998789 -951998789.89 -951998789.91 -951998789.95 -951998789.98 -951998787#0 -951998787#0.10 -951998787#0.14 -951998787#0.18 -951998787#0.21 951998783#2 -951998785#1 -951998790 -896893023#6 -896893023#6.20 -896893023#6.24 -896893023#6.27 -896893023#6.30 -896893023#5 -896893023#5.8 -951998775 877388646#0 877388646#0.26 877388646#1 877388646#1.12 877388646#1.35 896892987#2 896892987#2.13 896892987#3 -951998764#0 -951998764#0.32 -951998764#0.41 -951998764#0.52 896893025#7 896893025#7.15 896892986#0 951998763 896892985#1 951349909#0 -951998762#0 -896892984#0 -896892984#0.11 876614662#5 -896892983#7 -896892983#6 -951349907#3 -951349907#2 -951349907#2.14 -951349907#2.28 -951349907#2.40 -951349907#2.47 -951349907#2.56 951349909#3 951354778 951354778.30 951354778.38 951354778.43 951354778.48 951354778.53 951354778.60 -951350966#3 -951350966#2 -951350966#2.8 -951350966#2.10 -951350966#2.12 -951350966#2.14 -951350966#2.16 -951350966#2.19 -951350966#2.59 -951350966#2.61 -951350966#2.63 -951350966#2.64 -951350966#2.66 -951350966#2.78 -951350966#2.82 -951350966#2.87 -951350966#2.94 -951350966#1 -951350966#1.7 -951350966#0 951350967#1 951350967#1.12 951349915#0 951349915#0.11 951349915#0.16 951349915#0.23 951349915#0.30 951349915#0.37 951349915#0.54 951349915#0.58 951349915#0.59 951349915#0.61 951349915#0.62 951349915#0.64 951349915#0.66 896892981#1 896892981#1.24 896892981#3 896892981#4 896892981#5 951349912#0 951349912#0.14 951349912#0.18 951349912#0.25 951349912#0.33 951349912#0.69 951349912#0.72 951349912#0.74 951349912#0.76 951349912#1 951349912#1.12 951349912#1.14 951349912#1.16 951349912#1.19 -896786335#44 -896786335#44.9 -896786335#44.71 -896786335#43 -896786335#42 -896786335#42.22 -896786335#41 908869237 908869237.8 908869237.20 908869237.48 -908869250#3 -908869238 -908869238.92 -896786335#39 -896786335#39.27 -896786335#37 -896786335#36 -896786335#34 -896786335#33 -951354773#3 -951354773#3.20 -951354773#3.23 -951354773#3.26 -951354773#3.28 -951354773#3.30 -951354773#3.32 -951354773#3.34 -951354773#3.38 -951354773#3.40 -951354773#3.43 -951354773#3.45 -951354771#1 -951355290 -951355290.28 -951355290.30 -951355290.31 -951355290.32 -951355290.33 -896893028#3 -896893028#3.26 896893016#0 896893017#0 896893017#1 -896786335#28 951358824#0 951358824#0.11 951358824#0.16 951358824#0.21 951358824#0.29 951358824#0.41 951358824#0.47 951358824#0.52 951354763#2 951354763#3 951995494#0 -951995491#2 -951995491#1 -951995491#0 896786266#13 896786266#13.14 -896893013#7 -896893013#7.29 -896893013#7.87 -896893013#6 -896893013#6.15 -896893013#5 -896893013#5.11 -896893013#5.13 896893005#0 896893005#0.7 896893005#0.25 896893005#0.69 -896786307#9 -896786307#9.12 -896786307#9.63 -896786307#9.67 -896786307#9.69 -896786307#7 -896786307#7.13 -896786307#6 -896786307#6.13 -896786307#6.32 877388976#0 877388976#0.43 877388976#0.77 -896786308#2 -896786308#2.11 -896786308#1 -896786308#1.17 896786307#0 896786307#0.31 951995496 951995496.11 951995496.15 951995496.18 951995496.22 951995496.29 -896786309#4 -896786309#4.39 -896786309#4.81 -896786309#2 -896786309#2.4 -896786309#2.65 -896786309#1 -896786309#0 896786304#2 896786300#0 896786300#0.23 896893013#0 896893013#0.10 896893013#0.59 -896893009 -896893009.79 -896893012#4 -896893007#1 -896893007#1.18 -896893008#1 -896893008#0 896786300#2 896786300#2.40 896786300#2.70 -896893012#1 -896893012#0 -896893012#0.11 896786303#5 896786303#5.27 896786303#5.100 896786303#5.124 -896786301 -896786301.70 -896786303#3 -896786303#2 -896786303#2.23 -951983587#8 -951983588#1 -951983588#0 951983586#1 896786304#9 896786304#9.20 896786311#11 896786311#11.62 -951976011#1 951976010#1 -896786335#9 -896786335#8 -896786335#8.39 -896786335#7 951976007 -951976006#1 -951976006#0 896786315#4 896786319#4 896786317#2 896786317#2.28 896786317#3 896786317#3.44 -896786335#3 -896786335#3.10 -896786335#2 -896786335#1 -896786335#1.14 -896786335#0 -951946803#2 -951946803#1 -951946803#1.55 -951946803#1.59 -951946803#1.61 -951946803#1.64 951946795#1 951946795#2 951946795#3 951946795#4 951946795#6 951946795#7 951946795#9 951946795#10 951946795#11 951946795#11.34 951946795#11.40 951946795#11.45 -951887683 -951887684 -951887682#6 -951887682#5 951887686#0 -951887688#2 -951887688#1 951887689 951961234#0 951961234#1 -951878265#2 951878263#1 951878263#1.39 951878263#1.46 951878263#1.53 951878263#1.72 951878263#1.75 951878263#2 951878263#2.2 -951878266#4 -951878266#4.37 -951878266#2 -951878266#1 -951878266#1.39 -951878266#1.47"/>
</vehicle>
<vehicle id = "veh14" type= "veh_passenger" depart="14420" >
<route edges =" -45342801#4 45342799#23 951370988 951370988.6 951370988.11 951370988.16 902433317#6 902433317#7 -951368596 45342799#27 45342799#27.15 45342799#27.20 45342799#27.25 45342799#27.36 972507120#0 -903341083#3 -903341083#2 -903341083#1 -903341083#0 672813677#4 672813677#4.8 -903341082#0 -903341082#0.45 -45342801#2 -45342801#1 -45342801#0 45342798#2 45342809#4 45342810#0 45342838#0 45342838#1 -671416442#2 -671416442#1 -671416442#0 671416444#1 671416444#2 45342810#2 -45342840#0 -45342798#0 -45344273#21 -45344273#21.28 -951441770 45342810#5 -973399407#2 -973399407#1 -973399407#0 44740885#14 44740885#14.4 44740885#14.9 44740885#15 44740885#15.31 44740885#16 44740885#17 -45344273#14 -45344273#14.32 -45344273#13 -45344273#12 -45344273#11 -45344273#10 -45344273#10.42 -45344273#9 -45344273#8 -45344273#8.10 -45344273#7 -45344273#7.22 -45344273#6 -45344273#6.40 -45344273#6.59 -45344273#5 -45344273#5.6 -45344273#5.15 -45344273#4 -45344273#4.8 -45344273#4.37 -45344273#3 -45344273#3.6 -45344273#3.14 -45344273#3.31 -45344273#3.48 -45344273#2 -45344273#2.6 -45344273#2.24 -45344273#1 -45344273#1.7 -45344273#0 -897252881 -45378637#10 45378639#7 -951404483#2 -951404484#9 -951404484#9.20 -951404484#8 -951404484#6 951404482 45378639#9 45378639#10 45378639#11 45378639#12 45378639#12.8 -45344310#1 -45344310#0 -45344310#0.10 -45344310#0.18 -45344310#0.30 -45344310#0.41 -45344310#0.52 971495602#8 971495602#8.24 971495602#8.86 -313316104#6 -313316104#5 -313316104#5.12 -313316104#5.27 -313316104#5.46 -951435500 -951435500.28 -951435500.32 -951435500.35 -951435500.37 -951435500.40 -951435500.48 -951435500.51 -951435500.54 -951435500.57 -951435500.60 -951435500.63 -951435500.67 -951435500.70 -951435500.74 -951435500.78 -951435500.92 -951435500.96 -951435500.100 -951435500.103 -951435500.108 -951435500.117 -951435500.121 -951435500.125 -951435500.137 -951435500.141 -951435500.145 -951435500.148 -313316104#3 -951347804#2 -951347804#2.16 -951347804#2.19 -951347804#2.23 -951347804#2.26 -951347804#2.30 -951347804#2.33 -951347804#2.35 -951347804#0 -951347804#0.1 -951347804#0.6 -951347804#0.20 -951347804#0.28 -951347804#0.33 -951347804#0.39 45378651#1 45378651#2 45378651#2.13 45378652#0 45378652#0.26 45378652#1 45378652#1.5 -908560901#10 -908560901#9 -908560901#9.4 -908560901#9.59 -313316104#0 -313316082 -45378649#12 896786296#0 -951355298#2 -951355298#2.7 -951355298#2.9 -951355298#2.11 -951355298#2.15 -951355298#2.38 -951355298#2.43 -951355298#1 -951355298#1.5 -951355298#1.10 -951355297#1 -951355296 -951354759#0 -951354759#0.4 -951354759#0.15 -951354759#0.20 -951354759#0.24 908869241#0 908869241#0.15 908869241#0.77 908869241#1 908869241#1.31 -908869252#1 -908869252#0 -908869252#0.17 -896786335#30 45378649#0 45378649#0.36 -951354765#1 -951354765#1.60 -951354765#1.64 -951354765#1.67 -951354765#1.70 -951354765#1.74 -951354765#1.99 -951354765#0 -896786265#6 -896786265#6.26 -896786265#5 -896786265#4 -896786265#4.59 -951995493#1 951354763#5 951995492#1 -896786265#0 909024253#0 951995490#0 909024242 -896786293#6 909024251 909024251.27 909024250#4 -909024245 -909024245.13 -909024245.37 -909024245.57 -896786335#16 -896786335#16.7 -896786335#15 45378665#0 45378665#0.11 45378665#0.47 909024239#0 909024239#1 909024239#1.17 909024239#2 909024239#2.40 877398366#3 877398366#4 877398366#6 877398520#0 877398520#0.55 -951995479#1 -951995479#0 -896786286#1 -896786286#1.14 -896786286#0 -896786286#0.12 877398366#9 -904371462#2 904371460#0 904371460#0.34 951995474 877396860#8 877396860#9 877396860#9.41 -896786284#1 -896786284#0 -896786284#0.50 -877396033#1 -877396033#1.14 -877396033#0 -671191680#15 -671191680#15.78 877398366#13 -904286382#4 -904286382#4.34 -904286376 -904286377#0 904286378#1 -904286382#2 -877396860#11 -671191680#13 -671191680#11 -671191680#9 -671191680#8 -671191680#6 -896786326#1 -896786326#0 -896786328#0 -896786328#0.177 -877395784#20 -877395784#19 -951946816#15 -951946816#14 -951946816#13 -951946816#13.3 -951946816#13.8 -951946816#12 951946833#1 951951640 951946817#2 -951951641 951946833#3 -951946817#5 -951951636 951951635#2 -951946806#8 -951946806#7 -951946806#6 -951946806#6.36 -951946806#6.39 -951946806#6.41 -951946806#6.44 -951946806#4 -951946806#2 -951946806#1 -951946806#1.48 -951946806#1.55 -951946806#1.61 -951946806#1.69 -951946806#1.82 -951946806#1.90 -951946806#1.98 -951946806#0 -952365020 -952365021 -951878231#2 -951951643#6 951951644#0 -951951642#4 -951951642#3 -951951642#3.15 -951951642#3.18 -951951642#3.20 -951951642#3.23 -951951642#3.36 -951951642#3.39 -951951642#3.41 -951951642#3.43 -951951642#2 -876509484#2 -951951643#1 951951648#0 951951648#1 -951951642#0 -951878263#5 -951878269#15 951891772#3 -951961237 951891766#3 951878270#0 951878270#0.33 951878270#0.36 951878270#0.39 951878270#0.42 951878270#2 951878270#3 951878270#4 -951887656#2 951891765#1 -951887654#2 951878272#2 -951891763#2 -951891763#1 951891765#3 -951917022 951887661#1 951887661#2 951887661#3 951878266#0"/>
</vehicle>
<vehicle id = "veh15" type= "veh_passenger" depart="18025" >
<route edges =" 951370989 951370989.40 951370989.47 951370989.53 951370989.56 951370989.62 951370989.64 951370989.67 -902433320#1 -902433320#0 902433321#2 -45342799#20 -45342797#4 -45342797#3 -45342797#2 -45342797#1 -45342797#0 -45342834#1 -45342834#0 44740902#8 44740902#9 44740902#9.47 44740902#10 44740902#10.9 44740902#11 44740885#7 -45342841 -45342802#1 44740902#13 44740902#14 44740902#14.81 44740902#14.94 -874839172#0 -44740943 -313316091#20 951438760#0 951438760#1 44740929#5 951438761 313316089 44740901#0 44740901#1 -951417475#1 -974189220#3 -44740895#3 -44740895#2 -44740895#2.69 44740972#0 44740972#1 -44740969#4 -44740969#2 -951439006 -951439007 -951439008 -44740929#10 -44740929#9 -44740929#9.28 -44740960#1 -44740960#0 -44740930#13 -44740930#12 -44740930#11 -44740930#10 44740923#0 44740923#1 -44740926#0 -44740922#5 -44740922#5.62 -44740922#3 44740953#0 44740953#2 44740940#0 44740945#0 44740945#1 44739167#14 44739167#15 44739167#15.29 -313316091#6 -313316091#5 -313316091#5.44 -313316091#4 -313316091#4.67 -313316091#2 -313316091#2.44 -313316091#1 -313316091#1.32 -313316091#0 -313316091#0.27 -313316091#0.72 -313316091#0.80 45340579#18 45340579#18.164 45340579#19 45340579#19.12 45340579#19.84 45340579#20 45340579#20.80 955813297#0 -909019772#1 -909019772#1.10 -909019772#1.26 -909019772#1.29 -909019772#1.34 44740916#2 44740916#2.8 44740916#2.32 44740916#3 44740916#4 44740916#4.18 44740916#6 909019789#1 909019789#2 -909019790#0 -909019790#0.12 -44740934#4 -44740934#3 -44740934#3.33 -909019780#1 -909019780#0 -668599376#0 -668599376#0.11 668599377#1 668599377#1.37 44740916#9 44740916#9.64 -909019783 -909019783.98 -45378660#1 -45378660#1.21 -45378660#1.52 -45378660#1.88 -45378660#1.126 -908560900#3 -908560900#2 -908560900#1 908560901#22 908560901#22.77 908560901#22.89 -971495601#0 -313316086 -44739144#26 -44739144#24 -44739144#22 -44739144#21 -44739144#20 909778547#0 909778547#2 -903953325#1 903953324#0 903953324#1 903953324#1.22 -44739144#18 -44739144#16 -44739144#15 -909024265#3 -952002225#0 -877398366#20 -909024264#1 -909024263 -909024263.30 -909024265#0 896786289#1 896786289#1.39 896786289#2 896786289#3 -909024270 -909024270.74 -909024270.101 909024277#1 909024277#1.11 909024277#2 909024277#2.19 909024277#2.45 909024277#3 909024273#2 909024273#3 909024276#0 909024276#0.40 909024276#1 909024276#2 -909024279#1 -909024279#1.6 -909024279#1.9 -909024279#1.11 -909024279#1.14 -909024279#1.17 -909024279#0 -909024279#0.11 -896786295#8 -896786295#8.13 -896786295#8.15 -896786280#3 -896786280#2 -896786275#5 -896786275#4 -896786275#3 -896786275#2 -896786275#2.8 909024281 909024281.8 896786270#1 -951421977 896786268#3 896786295#13 -896786294#5 -896786294#5.6 -896786294#5.10 -896786294#5.13 -896786294#5.16 -896786294#5.19 -896786294#5.22 -896786294#4 -909024256#1 -909024256#1.22 -909024256#1.80 -909024256#0 -909024256#0.28 896786279#5 -896786278#0 -896786278#0.50 -896786276 -896786276.82 -896786294#0 -896786294#0.13 877398366#17 877398366#17.93 -909024294#1 -909024294#0 -909024294#0.55 877396860#18 877396860#18.31 -904371479#3 -904371474#3 -904371474#2 -904371474#1 904371473#0 904371470#0 904286386#4 904286386#4.19 -904286385#15 -904286385#15.42 904371468 904371468.35 904371468.46 904371468.50 904371468.53 904371468.59 -904371488#1 -904371488#0 -904371488#0.22 -904286385#9 -904286385#8 -904371487#1 -904371487#1.16 -904371489#2 -904371489#1 -904371489#1.14 -904371489#1.36 -904371489#1.40 -904371489#1.44 -904371489#0 -904371490#4 -904371492#6 -904371456#3 -904371456#2 -904371456#2.22 -904371456#1 -904371456#0 -904371456#0.17 -671191680#0 -671191680#0.38 -671191680#0.44 -671191680#0.48 -671191680#0.53 -671191680#0.58 -671191680#0.63 -671191680#0.76 -896786327#0 877395784#22 877395784#22.56 904371492#0 904371492#0.68 904371492#2 -904371491 -904286385#2 -904371493#4 -671191681#2 -671191681#1 -951973436#2 -951973436#0 -951973436#0.3 -951973436#0.8 -877395784#25 -877395784#25.55 -952002224#7 -952002224#7.17 -952002224#7.71 -951973426#2 951951638#9 951973434#1 951951639#3 951951639#4 -951973432#1 -951951638#7 -951951638#5 -951951638#4 -951951638#3 -951951638#2 -951951638#1 -952000397 951951639#15 896786337#6 896786337#7 896786337#8 896786337#8.8 896786337#10 896786337#10.21 -951887700#20 -951887700#19 -951887700#18 -951887700#17 -951887700#17.17 -951887700#16 -951887700#15 -951887700#14 -951961240#3 -951961240#1 -951961245 951891772#0 951891772#1 -951891774 -951891771#1 -951891771#0"/>
</vehicle>
<vehicle id = "veh16" type= "veh_passenger" depart="18025" >
<route edges =" 45342801#5 45342801#5.32 902433317#3 951421968#0 951421968#1 951421968#1.20 -951381446#1 951368598#1 -45344271#32 951368595#0 951368595#1 951368595#1.17 951368595#1.34 902433317#8 902433317#8.29 902433317#9 951368594#0 951368594#1 951368594#2 972507120#3 -951369746#4 -951369746#4.24 -951369746#4.27 -951369746#4.29 951369745#0 -951381440 -951369738 -951369738.5 -951369738.18 -951369738.24 -951369738.31 -951379885 -951379885.7 -951379885.13 -951379885.20 -951379885.27 951379886#2 951379886#2.14 951379886#2.19 951379886#2.22 951379886#2.25 951379886#2.28 -951369741#1 -951369741#1.20 -951369741#1.25 -951369741#1.30 45344273#27 45344273#27.17 -897252875#3 -897252875#2 -897252875#2.29 -897252875#0 -897252875#0.4 -897252875#0.15 -897252875#0.35 897252876#3 897252876#4 45344320#2 45344320#3 -45344331#4 45344327#1 -897172091#10 -950400190 -45344335#2 699875131#2 -950400194#2 950235689#2 -45344335#0 -45344335#0.49 -45344297#0 -45344297#0.11 699875130#3 699875130#3.37 -897172091#0 -45344294#6 -45344294#6.9 -45344294#6.25 -45344294#5 -45344294#5.7 -45344294#4 -45344294#4.7 -45344294#4.18 -45344294#3 -45344294#1 -45344294#0 -45344304#5 -45344286#12 -45344286#11 951404497 951404497.20 951404497.26 951404497.33 951404497.38 951404497.43 -897252855#0 -45344287#0 -45344287#0.5 -45344287#0.14 -951384608#1 -951384608#1.59 -951384608#1.63 -951384608#1.67 -951384608#1.69 -951384608#1.73 -951384608#0 -951384608#0.43 -951384608#0.47 -951384608#0.50 -951384608#0.52 -702632123#1 -702632123#1.4 -702632123#0 45344272#13 45344272#13.4 45344272#13.35 45344298 896892974 971495602#11 971495602#12 971495602#12.26 971495602#12.77 951442813 951442812#0 -896786335#50 -896786335#49 -896786335#48 -896786335#48.15 -896786335#47 -896786335#46 951358828 951358828.11 951358828.13 951358828.16 951358828.19 951358828.22 951358828.26 951358828.29 951358828.32 951358828.42 951358828.46 951358828.50 951358828.53 951358828.57 -896786247#8 -908869236 -908869236.10 -908869236.25 -908869236.28 -908869236.31 -908869236.34 -908869236.36 -908869236.38 -908869236.41 -908869236.82 -908869236.85 -908869236.89 -908869236.92 -908869236.95 -908869236.97 -908869236.100 -896786335#43 -896786335#42 -896786335#42.22 896892983#0 896892983#0.10 896892983#1 896892983#1.19 -951421976 -896892982#1 -951349921#5 -951349921#5.15 -951349921#5.17 -951349921#5.20 -951349921#5.23 -951349921#5.25 -951349921#5.32 -951349921#5.34 -951349921#5.37 -951349921#5.39 -951349921#5.42 951349920 951349920.8 951349920.12 951349920.15 951349920.20 951349920.60 951349920.65 951349920.69 951349920.73 951349920.77 -896786335#37 -896786335#36 -896786335#34 -896786335#33 -896786335#32 -896786335#32.17 -896786335#31 -896786335#31.22 -896786335#30 -896786335#29 -896786335#29.17 -896786335#28 -896786335#27 -896786335#27.19 -896786335#26 -896786335#24 -896786335#23 -896786335#23.44 -896786335#22 -896786335#21 -896786335#21.41 -896786335#19 -896786335#18 -896786335#17 -896786335#17.2 -896786335#16 -896786335#16.7 -896786335#15 -896786335#14 -896786335#14.27 -896786335#13 877398366#0 877398366#0.11 -909024237#0 951983583#1 -896786335#11 -896786335#10 -896786335#10.38 -896786322 -896786322.14 -896786322.21 -896786323#1 896786325#4 896786325#4.12 -896786335#4 -896786335#4.18 -896786335#3 -896786335#3.10 -896786335#2 -896786335#1 -896786335#1.14 -896786335#0 877395784#17 877395784#17.13 877395784#17.29 877395784#19 951951639#0 951946803#0 951946795#1 951946795#2 951946795#3 951946795#4 951946795#6 951946795#7 951946795#9 951946795#10 951946795#11 951946795#11.34 951946795#11.40 951946795#11.45 -951887683 -951887684 -951887682#6 951887695#5 671756019#0 671756019#1 671756018 -876509484#8 -876509484#8.19 951878263#0 951878263#0.8 951878263#0.15 -951878265#1 -951878266#5 -951878266#5.22 -951878266#5.29 -951878266#5.37 -951878266#4 -951878266#4.37 -951878266#2 -951878266#1 -951878266#1.39 -951878266#1.47"/>
</vehicle>
<vehicle id = "veh17" type= "veh_passenger" depart="18025" >
<route edges =" -45342801#4 45342799#23 45342799#25 45342799#25.7 45342799#25.22 45342799#26 45342799#27 45342799#27.15 45342799#27.20 45342799#27.25 45342799#27.36 972507120#0 972507120#2 45342812#0 45342812#1 45342811#2 45342811#2.66 -45344273#22 -45344273#22.6 -45344273#22.18 -45344273#22.35 -45344273#21 -45344273#21.28 -45344273#19 -45344273#18 -45344273#18.17 -45344273#17 -45344273#17.20 -45344273#17.31 -45344273#16 -45344273#16.5 -45344273#16.30 -45344273#14 -45344273#14.32 -45344273#13 -45344273#12 -45344273#11 -45344273#10 -45344273#10.42 -45344273#9 -45344273#8 -45344273#8.10 -45344273#7 -45344273#7.22 -951384596#1 -951384596#1.24 -951384596#1.31 -951384596#1.36 -951384596#1.46 -951384596#1.54 -951384596#1.60 -951384596#1.72 -951384596#1.107 -951417467 -951417467.14 -951417467.15 -951417467.17 -951417467.18 -951417467.21 -951417467.23 -951417467.24 -951417467.25 951384598#2 -951384597 -951384597.29 -951384597.36 -951384597.43 -45344273#3 -45344273#3.6 -45344273#3.14 -45344273#3.31 -45344273#3.48 -45344273#2 -45344273#2.6 -45344273#2.24 -45344273#1 -45344273#1.7 -45344273#0 -897252881 -45378637#10 45378639#7 -951404483#2 -951404484#9 -951404484#9.20 -951404484#8 -951404484#6 -951404484#5 951404481 45378639#10 45378639#11 45378639#12 45378639#12.8 -45344310#1 -45344310#0 -45344310#0.10 -45344310#0.18 -45344310#0.30 -45344310#0.41 -45344310#0.52 971495602#8 971495602#8.24 971495602#8.86 -313316104#6 -313316104#5 -313316104#5.12 -313316104#5.27 -313316104#5.46 -313316104#4 -313316104#4.4 -313316104#4.18 -313316104#4.31 -313316104#4.41 -313316104#4.56 -313316104#3 -313316104#2 -313316104#2.13 -313316104#2.35 -313316104#2.44 -313316104#1 -313316104#0 -313316082 -45378649#12 896786247#0 896786247#0.38 908869233 -908869244#0 -908869250#1 -908869250#0 -908869250#0.11 -908869250#0.41 -45378649#10 -45378649#10.20 -45378649#9 -45378649#9.7 -45378649#7 -45378649#7.4 -45378649#5 -45378649#5.24 -45378649#5.57 -45378649#5.68 -45378649#3 -45378649#3.8 -45378649#2 -45378649#2.8 951354763#0 951354763#1 951358824#1 -896786265#5 -896786265#4 -896786265#4.59 -896786265#2 -896786265#0 909024253#0 909024253#1 909024253#1.45 909024253#2 909024253#2.16 909024252#1 -896786266#7 -896786266#6 -896786266#6.39 -896786266#5 896786257#2 896786257#2.28 896786257#2.57 896786257#3 896786257#3.14 896786257#4 896786257#5 896786257#6 896786257#6.8 896786257#6.44 896786257#6.53 -896786293#4 -896786293#3 -896786293#3.1 -45378665#2 -45378665#2.36 -45378665#1 909024239#0 909024239#1 909024239#1.17 -909024237#1 -909024237#1.34 -909024237#1.71 -909024237#1.74 -909024237#1.78 -909024237#1.82 877398366#1 877398366#1.15 877398366#2 877398366#2.36 -951983585 -951975994 -896786324#1 -896786324#0 -896786324#0.19 -896786324#0.132 -896786324#0.177 -877395784#19 -877395784#17 -877395784#17.8 -877395784#17.24 -877395784#15 951946833#0 951946833#1 951951640 -951946817#1 -951946816#10 -951946823 -951946821#0 -951946821#0.2 -951946821#0.6 -951946821#0.9 -951946818#2 -951946806#8 951951629 951946833#11 951946833#11.92 951946833#11.95 951946833#11.98 951946833#11.101 -951946806#0 -952365020 -952365021 -951878231#2 -951878231#1 -951878231#1.26 -951868611#0 -951951643#4 -951951643#3 -951951643#2 -951951643#1 951951648#0 951951649 -951878263#6 -951878263#5 -951878269#15 -951878269#14 -951878269#13 -951878269#12 -951878269#10 -951878269#9 -951930614 -951878270#3 877401978#0 877401978#1 951878266#0"/>
</vehicle>
<vehicle id = "veh18" type= "veh_passenger" depart="21630" >
<route edges =" 951370989 951370989.40 951370989.47 951370989.53 951370989.56 951370989.62 951370989.64 951370989.67 -902433320#1 -902433320#0 902433321#2 45342799#21 45342809#0 951368600#0 -951368603#1 -951368603#0 -45342835#1 -45342835#0 -45342797#0 45342834#2 45342809#3 45342809#4 45342809#5 -45342836#2 -951441769 951370985#1 45342809#7 45342809#8 45342809#9 45342809#10 45342809#10.44 45342809#11 -45342831#3 45342822#0 45342822#1 -45342820#1 -45342804#3 -45342804#2 45342831#0 951421967 951417480#1 -951417482#1 -951417481 -45342805#2 -45342805#1 -45342805#1.66 -45342805#0 -45342805#0.29 -45342808#2 45342804#0 -45342843#3 45342803#0 44740957#0 -951417477 -45342843#1 -45342843#0 44740957#2 44740957#4 -671399051#1 -671399051#0 -44740942#1 -44740942#0 974189220#5 902433296 44740967#0 44740929#7 -951439009 44740962#2 44740930#16 44740967#3 44740967#4 -44740927#17 -44740923#2 44740926#1 44740926#2 44740926#3 44740926#4 44740925#2 44740925#3 -44740927#14 -44740927#13 -44740927#12 -44740927#11 951358806#0 951358805#0 951358805#1 -44740928#1 44740926#7 44740926#8 44739163#17 -44740927#9 -44740927#8 -44740927#6 -44740927#5 -44740927#4 951438767 951438767.14 951438767.19 951438767.25 951438767.33 951438767.38 -951358798#0 -951358798#0.10 -951358798#0.14 -951358798#0.17 -951358798#0.19 -951358798#0.21 -951358798#0.22 -951358798#0.24 -951358798#0.36 -951358798#0.39 -951358798#0.41 -951358798#0.42 -951358798#0.45 -951358798#0.47 951358797#1 951358797#2 951358797#2.23 951358797#3 -951358800#0 -44740918#1 44740931#0 -44740919#0 -951358792 -951358792.26 -951358792.42 -951358792.53 -951358792.66 896892969#18 -971495601#9 -971495601#9.28 -971495601#8 -971495601#7 -971495601#6 -971495601#5 -971495601#3 -44740910#8 -671410531#2 -671410531#1 -671410531#1.53 -671410531#1.57 -671410531#1.63 -671410531#0 -909019784#0 313316100#8 313316100#8.72 -971495601#0 -313316086 -44739144#26 -44739144#24 909024272#0 909024272#0.29 909024272#1 909024272#1.30 909024272#1.53 909024271#1 -896786294#10 -896786294#8 -896786294#7 -896786294#7.20 -896786294#6 -896786294#5 -896786294#5.6 -896786294#5.10 -896786294#5.13 -896786294#5.16 -896786294#5.19 -896786294#5.22 -896786294#4 -909024256#1 -909024256#1.22 -909024256#1.80 -896786277#3 -896786277#2 -896786277#0 -877398366#15 -877398366#15.29 -904286380#3 -904286380#3.41 -904286380#2 -877396860#12 -904286382#1 -904286382#0 -904286374 -904286375#2 -904286375#2.19 904286373#0 904286373#1 904286373#2 904286373#2.10 904286371 -671191680#6 -671191680#5 -951973470#1 -951973470#1.3 -951973470#1.6 -951973470#1.10 -951973471#4 -951973471#3 -951973471#2 -951973471#2.11 -951973471#2.14 -951973471#2.17 -951973471#2.20 -951973471#1 -951973471#0 -671191680#1 -671191680#1.13 -671191680#0 -671191680#0.38 -671191680#0.44 -671191680#0.48 -671191680#0.53 -671191680#0.58 -671191680#0.63 -671191680#0.76 -896786327#0 -877395784#21 -877395784#21.14 -951951638#10 -951951638#10.18 951973434#1 951951639#3 951951639#4 -951973432#1 -951951638#7 -951951638#5 -951973430#0 -952002224#4 -952002224#4.27 951946798#0 -951951638#3 -951951638#2 -951946794#1 -951946794#0 951946792#1 896786337#8 896786337#8.8 896786337#10 896786337#10.21 -951887700#20 -951887700#19 -671756019#4 -951961235 -951961234#0 -951887700#16 -951887700#15 -951887700#14 -951887679#2 -951887679#1 -951887679#1.32 -951887679#1.35 -951887679#1.38 -951887679#1.41 -951887681 951887675#1 -951887674#2 -951887674#1 -951887674#1.5 -951887674#1.8 -951887674#0 904196453#11 -951887667#7 951887672#2 -951887669#2 -951887669#1 951887668#0 951887668#1 904196452#7 904196452#8 904196452#8.23 904196453#13 951887700#7 951887700#7.21 951887700#7.25 951887700#8 951887700#8.5 951887700#8.7 951887700#8.11 951887700#10 951887700#11 951961240#0 951961240#0.54 951961240#0.57 951961240#0.59 951961240#0.62 -951961245 951891772#0 -951891773 -951891771#0"/>
</vehicle>
<vehicle id = "veh19" type= "veh_passenger" depart="21630" >
<route edges =" 45342801#5 45342801#5.32 902433317#3 902433317#4 902433317#6 902433317#7 902433317#8 902433317#8.29 902433317#9 951368594#0 951368594#1 -951369743#1 -951369743#1.33 -951369743#1.39 -951369743#0 -951369743#0.6 951369744#2 951369744#2.22 951369744#2.31 951369744#3 951369744#3.5 951369745#2 951369745#2.2 951369745#2.14 951369745#2.20 951369745#2.26 951369745#4 951369745#4.4 951369745#5 -951369744#0 876567894#57 876567894#57.13 876567894#57.25 876567894#57.33 876567894#57.36 876567894#58 876567894#58.2 876567894#58.7 876567894#58.15 876567894#58.20 876567894#59 876567894#60 876567894#60.19 -951369737#3 -951369737#3.16 -951369737#3.20 -951369737#3.24 -951369737#3.29 -951369737#3.34 -951369737#3.39 -951369737#3.42 -951369737#3.56 -951369737#3.63 -951369737#3.67 -951369737#3.71 -951369740#1 -951369740#1.11 -951369740#1.14 -951369740#1.18 -951369740#1.22 -951369740#1.28 -951369740#1.32 -951369740#1.36 -951369740#1.40 -951369740#1.44 -951369740#1.64 -951369740#0 -951369740#0.4 -951369740#0.11 45344273#27 45344273#27.17 -897252875#3 -897252874 897252876#1 897252876#1.54 897252876#3 897252876#4 45344320#2 -45344329#7 45344327#0 -45344331#3 -45344331#2 -45344331#1 -45344331#0 45344326#3 699875133 699875130#1 699875130#3 699875130#3.37 -897172091#0 -45344296#0 -45344296#0.92 -45344296#0.150 -901885452#0 -897252884#0 -45344329#1 951370979#0 -951440590 45344291#2 45344291#3 45344291#3.27 45344291#3.54 45344291#3.63 45344291#3.68 45344291#3.139 -951370958 -45344288#0 -45344288#0.29 -45344294#3 897252857 -897252858#1 951370960 -951370961#0 -897252852#5 -897252852#3 -897252852#1 -897252852#1.36 -897252852#0 45344272#9 45344272#9.28 45344272#10 45344272#10.38 -896892971#3 -896892971#2 -896892971#2.32 -896892971#2.61 -896892971#2.75 -896892971#1 -896892971#0 -896892971#0.14 -896892971#0.28 -896892971#0.54 -896892971#0.88 -45344286#8 -951384608#1 -951384608#1.59 -951384608#1.63 -951384608#1.67 -951384608#1.69 -951384608#1.73 -951384608#0 -951384608#0.43 -951384608#0.47 -951384608#0.50 -951384608#0.52 -702632123#1 -702632123#1.4 -702632123#0 45344272#13 45344272#13.4 45344272#13.35 45344298 896892974 971495602#11 971495602#12 971495602#12.26 971495602#12.77 951442813 951442812#0 -896786335#50 -896892981#13 -896892981#13.5 -896892981#13.13 -896892981#12 951354780 951354780.16 951354780.26 -896786335#47 -896786335#46 -896786335#44 -896786335#44.9 -896786335#44.71 -896786335#43 -896786335#42 -896786335#42.22 -896786335#41 -896786335#40 -896786335#39 -896786335#39.27 -896786335#37 -896786335#36 -896786335#34 -908869252#3 -908869252#3.7 -908869252#3.13 -908869252#3.35 -908869252#3.57 -908869252#3.88 -908869252#3.90 -908869252#3.94 -951355291 -951355291.22 -951355291.26 -951355291.31 -951355291.36 -951355291.41 -951355291.50 -951355291.55 -951355291.62 -896786335#31 -896786335#31.22 -896786335#30 -896786335#29 -896786335#29.17 -896893017#1 -896893018#1 -896893018#1.27 -896893018#0 877388728#14 -951995494#1 -951995491#2 951995493#0 951354763#5 -951995492#0 -951995491#0 896786266#13 896786266#13.14 -896786335#21 -896786335#21.41 -896893011#1 -896893012#6 -896893012#6.12 -896893012#5 -896893012#5.11 -896893012#4 -896893012#3 -896893012#2 -896893012#2.9 896786300#3 896786300#3.17 -896786335#14 -896786335#14.27 -896786335#13 -951983587#9 -896786303#1 -896786303#1.61 -896786303#0 -896786311#12 -896786311#12.40 -951976011#1 -951976011#0 896786321#2 -896786320#3 -896786320#3.5 951976009#0 951976009#1 -896786335#7 -896786335#6 -896786335#4 -896786335#4.18 -896786335#3 -896786335#3.10 -896786335#2 951976001#0 -951976002 -951976000#1 -951976000#0 -896786335#0 877395784#17 877395784#17.13 877395784#17.29 877395784#19 951951639#0 951951639#1 951946802 951946795#2 -951946801 951951639#6 951951639#7 951951639#8 951951639#9 951951639#10 951951639#11 951946796#0 951946804 951946804.28 951946804.31 951946804.34 951946804.37 951946795#11 951946795#11.34 951946795#11.40 951946795#11.45 -951887683 -951887684 -951887682#6 951887695#5 671756019#0 -951961251#1 951961247#0 951961247#1 951961247#1.3 951961247#2 951951644#2 951951644#2.2 951951644#2.5 -951961252 951961249#1 951961249#1.17 951961249#1.19 951961249#1.21 951961249#1.24 -951961255 -951961255.19 -951961255.22 -951961255.25 -951961255.27 951961248#1 -876509484#6 -876509484#6.3 -876509484#6.8 -876509484#6.12 -876509484#6.15 -876509484#5 -951878267#1 -951878267#0 -951878267#0.26 -951878267#0.29 -951878267#0.32 -951878267#0.34 951878264#2 -951878263#3 -951878266#4 -951878266#4.37 -951878266#2 -951878266#1 -951878266#1.39 -951878266#1.47"/>
</vehicle>
<vehicle id = "veh20" type= "veh_passenger" depart="21630" >
<route edges =" -45342801#4 45342799#23 45342799#25 45342799#25.7 45342799#25.22 45342799#26 45342799#27 45342799#27.15 45342799#27.20 45342799#27.25 45342799#27.36 -951370987 -951370987.52 -951370987.54 -951370987.56 -951370987.57 -951370987.59 -951370987.62 -903341083#2 -903341083#1 -951368605#2 -951368605#1 -951368605#0 45342811#1 45342811#2 45342811#2.66 -45344273#22 -45344273#22.6 -45344273#22.18 -45344273#22.35 -45344273#21 -45344273#21.28 -951441770 45342810#5 45342810#6 45342810#6.38 44740885#17 -45344273#14 -45344273#14.32 -45344273#13 -45344273#12 -45344273#11 -45344273#10 -45344273#10.42 -45344273#9 -45344273#8 -45344273#8.10 -45344273#7 -45344273#7.22 -45344273#6 -45344273#6.40 -45344273#6.59 -951384598#3 -951384597 -951384597.29 -951384597.36 -951384597.43 -45344273#3 -45344273#3.6 -45344273#3.14 -45344273#3.31 -45344273#3.48 -45344273#2 -45344273#2.6 -45344273#2.24 -45344273#1 -45344273#1.7 -45344273#0 -897252881 -45378637#10 -45378637#9 -951404484#10 -951404484#9 -951404484#9.20 -951404484#8 -951404484#6 951404482 45378639#9 45378639#10 45378639#11 -951404475 -951404475.33 -951404475.43 -951404484#0 -951404484#0.3 -951404484#0.6 -951404484#0.11 -951404484#0.38 -45344310#0 -45344310#0.10 -45344310#0.18 -45344310#0.30 -45344310#0.41 -45344310#0.52 971495602#8 971495602#8.24 971495602#8.86 45340579#6 -908560887#8 -908560887#8.9 -908560887#8.22 -908560887#8.29 -908560887#8.34 -908560887#8.39 -908560887#8.43 -908560887#8.49 -908560887#8.57 -908560887#8.62 -908560887#8.67 -908560887#8.71 -908560887#7 -908560887#7.10 -908560887#7.18 -908560887#7.26 -908560887#7.31 -908560887#7.34 -908560887#7.37 -951435494 -951435494.8 -951435494.19 -951435494.25 -951435494.33 -951435494.43 -951435494.50 -951435494.55 -951435494.60 -951435494.65 -313316104#4 -313316104#4.4 -313316104#4.18 -313316104#4.31 -313316104#4.41 -313316104#4.56 -313316104#3 -313316104#2 -313316104#2.13 -313316104#2.35 -313316104#2.44 -313316104#1 -313316104#0 -313316082 -45378649#12 896786296#0 896786296#1 896786296#1.36 -896786262#6 -896786262#6.15 -951355297#2 -951355297#2.10 -951355297#1 -951355297#0 -45378649#7 -45378649#7.4 908869241#0 908869241#0.15 908869241#0.77 -908869239 -908869239.8 -908869239.11 -908869239.13 -908869239.15 -908869239.18 951354762#0 951354762#0.9 951354762#0.12 951354762#0.15 951354762#0.18 951354762#0.94 951354762#0.96 951354762#0.97 951354762#0.99 951354762#0.100 951354762#0.102 951354762#0.106 951354762#0.107 951354762#0.109 951354762#0.110 951354762#0.112 951354762#0.127 951354762#0.129 951354762#1 951354762#1.1 951354762#1.3 951354762#1.20 896786263#1 -951354764#0 -951354764#0.33 -951354764#0.44 -951354764#0.55 -951354764#0.67 -896786265#6 -896786265#6.26 -896786265#5 -951358820 -951358820.17 -951358820.20 -951358820.22 -951358820.25 -951358820.28 -951358820.45 -951358820.48 -951358820.50 -951358820.53 -951358821#1 -951358821#0 -951358821#0.3 -951358821#0.6 -951358821#0.9 -951358822#0 -951358822#0.4 -951358822#0.8 -951358822#0.13 -896786265#2 -896786265#0 896786266#11 896786266#11.13 909024250#0 909024250#1 909024250#2 909024250#4 909024250#5 909024250#6 909024239#0 909024239#1 909024239#1.17 909024239#2 909024239#2.40 -951983585 877396860#3 -904371460#5 -904371460#4 -904371460#4.9 -904371460#4.24 904371458#0 904371458#0.18 904371458#1 904371465#0 904371465#1 -904371466 -904371466.129 -671191680#9 -671191680#8 896786325#0 896786325#0.98 896786325#0.107 896786325#0.114 896786325#0.120 896786325#0.127 896786325#0.178 896786325#1 896786325#2 896786325#3 -896786323#0 -896786323#0.137 -896786323#0.139 -896786323#0.141 -896786324#0 -896786324#0.19 -896786324#0.132 -896786324#0.177 -877395784#19 -877395784#17 -877395784#17.8 -877395784#17.24 -877395784#15 951946833#0 951946816#12 951951634#0 951951634#1 951951634#1.75 951951634#1.79 951951634#1.82 951951634#1.86 -951951632#0 951946805#2 951946837#0 951946837#1 951946837#2 951946834#1 -951946833#7 -951946833#6 -951946833#5 951975993 951951631#1 951951635#2 -951946806#8 951951629 951946833#11 951946833#11.92 951946833#11.95 951946833#11.98 951946833#11.101 -951946806#0 -952365020 -952365021 -951878231#2 951868619#0 951868620#0 -951868611#1 -951878231#0 951951645 -951951643#3 -951951646 -951951642#2 -876509484#2 -951951643#1 -951951643#0 951878263#8 951878230#4 -951891772#4 -951961237 -951891766#2 -951891766#2.2 -951891766#2.6 -951891766#2.10 -951891766#2.15 -951891766#0 -950288028#0 -951878269#4 951878272#0 951878272#1 -951887654#1 -951887654#0 700825962#4 700825962#4.25 700825962#4.106 700825962#4.130 -700825961#7 -700825961#7.10 -700825961#7.37 -951891762 700825962#6 700825962#7 700825962#7.15 700825962#7.28 700825962#8 700825962#8.3 951887700#0 951887700#1 951887700#2 -951887702#0 951887666#2 951887664#1 -904196454#4 951887661#0 951917022 -951891765#3 -951891763#0 -951891764#0 -951887660#0 877401978#1 951878266#0"/>
</vehicle>
</routes>
