<?xml version="1.0" encoding="UTF-8"?>
<routes xmlns:xsi="http: // www.w3.org/2001/XMLSchema-instance" xsi:noNamespaceSchemaLocation="http: // sumo.dlr.de/xsd/routes_file.xsd">
<vType id="veh_passenger" vClass="passenger"/>

<vehicle id = "veh0" type= "veh_passenger" depart="0" >
<route edges =" -813722269#3 -813722269#3.7 -813722269#3.48 -813722269#3.84 -813722269#3.86 620762213#0 620762213#0.9 620762213#0.88 620762212#0 620762212#0.8 620762212#0.52 6343949#6 6343949#7 6343949#8 6343949#8.52 6343949#10 6343949#10.49 6343949#12 6343949#12.47 -525497324#3 -525497324#2 243349944#4 243349944#4.53 243349944#6 243349944#7 -460419011#3 -460419011#2 6464126#3 6464126#3.49 6464126#5 -460419028#3 243349338#0 243349338#0.18 243349338#1 243349338#2 243349338#3 243349338#3.49 243349338#5"/>
</vehicle>
<vehicle id = "veh1" type= "veh_passenger" depart="0" >
<route edges =" -6457203#16 -6457203#16.59 975126260#0 975126260#0.49 -6505136#16 6368504#5 6368504#5.48 6368504#7 6368504#7.50 -6513783#8 -6513783#7 37657905#3 37657905#3.48 37657905#5 37657905#5.10 37657905#5.46 37657905#7 37657905#7.49 476409329 -6383185#5 6384373#1 6384373#2 6384373#2.45 6384373#2.56 -65588097#1 -65588097#1.119 337818330 6463035#0 6463035#0.14 6463035#0.38 6463035#3 -6495801#0 -185485132#12 -185485132#12.125 -185485132#11 -185485132#11.16 243349945#9 243349945#9.50 -6494975#8 -6494975#7 -6494975#6 -6494975#6.81 256994205#3 428246847#0 428246847#0.8 428246847#0.22 6386110#0 6386110#0.16 6386110#0.25 6386110#0.55 -243349338#6 -243349338#6.14"/>
</vehicle>
<vehicle id = "veh2" type= "veh_passenger" depart="0" >
<route edges =" -6522868 -6403883#7 -6403883#6 -6403883#5 -6403883#4 -6403883#3 -6403883#2 158882505#7 158882505#8 8111709#0 8111709#0.47 8111709#2 8111709#2.49 8111709#4 8111709#4.49 -6513783#5 6384359#8 6384359#9 6384359#9.26 -6381494#3 -6381494#3.43 6463017#6 6463017#6.48 -6386837#0 337739268 337739268.124 337739267#0 337818462 337818462.3 337818462.6 337739271#1 337739271#1.6 337739269#0 -460419011#4 243349944#8 -801995081#5 -801995081#5.197 -801995081#5.209 -801995081#2 -801995081#2.109 -801995081#0 243339793#4 243339793#5 243339793#6 243339793#6.50 243339793#6.74 -22917112 -185485118#1 6514312#0 6514312#0.70 -6523501#6 -6523501#6.6 185485127#1 -6494970#4 -6494970#4.172 -6494970#2 -6494970#2.4 -6494970#2.100 6358721#0 6358721#0.9 6415147#4 6415147#5 6415147#6 6351349#2 6351349#3 6351349#3.107 6351349#5 -185483733 -6414318#4 -157167355#0"/>
</vehicle>
<vehicle id = "veh3" type= "veh_passenger" depart="0" >
<route edges =" 817434294 817434294.10 817434294.36 817434294.44 817434294.63 817434294.119 6343949#0 6343949#0.7 6343949#0.86 6343949#3 6343949#3.9 6343949#3.49 620762212#3 6430729#6 6430729#6.47 6430729#6.48 6430729#9 6430729#9.48 6430729#11 6430729#11.51 6430729#13 6430729#13.48 6430729#15 6430729#15.48 6430729#17 6430729#17.51 -620762224#0 -66558981#7 -66558981#7.65 -66558981#7.83 -66558981#7.105 -66558981#7.123 -66558981#2 -66558981#2.131 -66558981#2.234 525497323#2 525497323#2.81 -481291488#2 -481291488#1 -481291488#0 -481291488#0.69 -481291488#0.82 -6447971#10 -6447971#10.11 -6447971#9 -6447971#8 -6447971#7 -6447971#6 -6447971#5 -6447971#4 169917351#6 169917351#7 169917351#7.49 169917351#9 169917351#9.48 169917351#9.87 169917351#12 169917351#12.9 169917351#12.42 169917351#12.90 -6360239#3 -6360239#3.6 -6360239#3.69 -6360239#3.102 6487445#0 6487445#0.8 6415147#0 6415147#0.61 6449462#3 6449462#3.7 6449462#3.50 6449462#3.60 6449462#3.72 6449462#3.87 795669782#0 795669782#0.54 795669782#2 6371720#2 6371720#3 157167355#0"/>
</vehicle>
<vehicle id = "veh4" type= "veh_passenger" depart="3605" >
<route edges =" -813722269#3 -813722269#3.7 -813722269#3.48 -813722269#3.84 -813722269#3.86 620762213#0 620762213#0.9 620762213#0.88 620762212#0 620762212#0.8 620762212#0.52 6343949#6 6343949#7 6343949#8 6343949#8.52 -65588093#1 -65588093#1.103 -65588093#1.123 -65588093#1.126 -65588093#1.130 -808903542#1 -808903542#1.4 -808903542#1.8 -808903542#1.13 -808903542#1.51 -808903542#1.55 -808903542#1.64 620762214 332092195#0 332092195#0.9 332092195#0.74 -22917111#30 -22917111#30.9 -22917111#30.50 -22917111#30.96 8071900#4 8071900#4.7 8071900#4.49 8071900#4.88 8071900#8 8071900#8.6 8071900#8.7 8071900#8.49 8071900#8.53 -525497324#0 525497323#0 525497323#0.50 525497323#2 525497323#2.81 481291488#3 481291488#3.216 243349944#7 -460419011#3 -460419011#2 -460419011#1 -460419011#1.97 243339793#2 243339793#2.49 -801995082 481291014#0 481291014#0.53 353690153#0 353690153#0.8 353690153#0.25 353690153#0.87 6360256#0 6360256#0.104 -243339793#5 -460419028#4 6464126#6 6464126#7 6464126#7.50 6464126#9 6464126#9.46 -185485132#3 -185485132#3.101 243339793#11 243339793#11.47 6494975#1 6494975#1.9 6494975#2 243349338#5"/>
</vehicle>
<vehicle id = "veh5" type= "veh_passenger" depart="3605" >
<route edges =" -6457203#16 -6457203#16.59 975126260#0 975126260#0.49 6505136#17 6505136#17.194 6505136#17.197 6339665#0 6339665#0.2 6339665#0.6 6339665#0.46 603522176#0 603522176#0.48 -6513783#10 603522173#2 603522173#2.51 -6381494#14 -6381494#14.47 -6381494#14.172 -6368504#11 -6368504#11.50 -6368504#11.52 -6513783#8 -170683231#20 -170683231#20.51 -170683231#18 -170683231#18.37 -170683231#18.49 -170683231#15 -170683231#15.34 -170683231#15.47 -170683231#15.61 -170683231#11 -170683231#11.43 6383185#7 476409332#2 476409332#2.43 476409332#4 65588097#7 65588097#7.42 65588097#9 6523125#1 -6495798#4 -6495798#3 -476409332#6 -6448612#8 -170683231#3 -6495798#1 -6495798#1.232 -6495798#1.266 -428315592#4 -428315592#4.102 -428315592#4.134 -428315592#2 -428315592#2.25 -428315592#2.67 -428315592#2.108 -460421484#1 -460421484#1.13 -6486416#2 -6486416#2.9 -6486416#2.116 805680044#1 805680044#1.7 805680044#1.49 805680044#1.91 805680044#5 805680044#5.6 805680044#5.49 6495801#0 6463035#4 6463035#4.46 6463035#4.48 -6356676#0 805680044#10 279467136#0 279467136#0.117 279467136#0.122 279467136#1 170683665#5 170683665#5.50 170683665#7 6353867#0 6353867#1 6414237#1 -6353172#1 40416130#3 40416130#3.42 40416130#3.45 40416130#6 -6369950#3 -170683665#13 -170683665#11 -170683665#11.54 -6353177#4 -6353177#3 -6353177#3.7 -6353177#3.98 -6353177#3.134 -160624558#4 -160624558#4.98 805658294#8 805658294#9 805658294#9.71 808266757#0 808266757#0.7 352434874#4 352434874#4.20 352434874#4.33 352434874#4.43 352434874#4.55 352434874#4.68 352434874#4.74 6474773#1 6474773#1.19 6474773#1.72 6474773#1.81 32135618#0 32135618#0.7 32135618#0.15 32135618#0.23 32135618#0.31 32135618#0.38 32135618#1 32135618#1.53 6521060#0 6521060#0.43 6472195#0 6472195#0.10 6472195#0.14 6472195#0.18 6472195#0.42 6472195#0.49 6472195#0.55 6472195#0.56 6472195#0.62 6472195#0.71 6463022#4 6463022#4.52 6463022#4.58 6463022#4.66 6463022#5 6463022#5.5 6463022#5.11 6463022#5.15 6463022#5.29 -6341490#1 -6341490#1.56 -6341490#1.92 -6341490#1.127 -6341490#1.160 -337698847#4 -337698847#4.8 -337698847#4.17 -337698847#4.27 -337698847#4.37 -337698847#3 -337698847#3.12 -337698847#3.24 -337698847#3.38 6430750#0 -6354200#1 -6343958#2 -6343958#1 -6343958#0 -336908257#8 -243349944#32 6409640#12 6409640#13 6409640#13.62 6409640#13.65 -6512824 -6512824.3 -6512824.8 -6512824.65 -6512824.72 -243349941#12 -243349941#12.7 -243349941#11 -243349941#10 -243349941#10.85 -6447445#20 -6447445#20.21 -6447445#20.41 -6447445#17 -6447445#16 532125609#1 532125609#2 -243349945#18 -359671039#6 -243349944#25 160624558#1 -243349945#16 -243349945#16.50 6472289#3 -805658294#5 -805658294#5.50 -243349942#1 -243349942#1.104 -243349942#0 -243349942#0.28 -243349944#20 -243349944#20.50 6494975#8 -243349945#10 -243349945#10.46 -185485132#10 -185485132#9 6447445#7 6447445#7.46 6447445#9 6447445#9.49 -22760521#2 -22760521#2.81 -22760521#2.121 428246847#0 428246847#0.8 428246847#0.22 6386110#0 6386110#0.16 6386110#0.25 6386110#0.55 -243349338#6 -243349338#6.14"/>
</vehicle>
<vehicle id = "veh6" type= "veh_passenger" depart="3605" >
<route edges =" 6457203#17 -6428544#18 -6428544#18.43 -6428544#18.144 -6428544#15 -6428544#15.8 -6428544#13 32143939 -263668130#2 -263668130#2.17 -263668130#2.32 -263668130#2.43 -263668130#2.52 -263668130#2.58 -263668130#2.67 -263668130#2.74 -263668130#2.85 6346524#7 -6428544#10 -6428544#10.8 -6428544#10.15 -6428544#10.34 -6428544#10.40 -6428544#10.45 -6428544#10.52 -6428544#6 428098976#3 428098976#3.15 428098976#3.23 -8071658#2 -8071658#1 -8071658#1.35 -6384935#5 -6384935#5.4 6428544#4 -8071381#1 -8071381#1.135 462701468 462701468.31 462701468.57 6523130 -337099385#0 -337099385#0.153 -337099385#0.159 -61958425 158882561#3 -8071380#1 -8071380#1.2 -8071380#1.5 -8071380#1.8 -8071380#1.11 -8071380#1.45 -8071380#1.57 -8071380#1.61 -8071894#4 -8071894#3 6384935#0 6384935#0.113 -8071895#0 6358515#1 6358515#2 -6428544#1 -6348400#1 -6348400#1.20 -6348400#1.22 -6348400#1.27 -215404534#1 215404533 -621088606#1 -621088606#0 -749754758#12 -749754758#12.26 6368518#4 6368518#4.46 -6374789#13 -6374789#12 -6374789#12.53 6414229#11 -6358524#8 -6358524#8.71 -6358524#8.120 6464391#6 6464391#6.5 6464391#6.66 6464391#9 6464391#9.7 6464391#9.49 6464391#9.91 -749754758#4 -749754758#4.4 -749754758#4.120 -749754758#1 -749754758#1.7 -749754758#1.102 -6479778#2 -6349048#2 -6349048#2.8 -6349048#2.90 6366765#21 6366765#21.3 6366765#21.24 6366765#21.30 6366765#21.34 6366765#21.38 6366765#21.40 6366765#21.42 6366765#21.43 6366765#21.72 460423542#0 460423542#0.9 6430733#0 6430733#1 6430733#3 6430733#3.48 -6349123#8 -6343952#2 -6511393#7 -6511393#6 -6511393#6.32 -6511393#6.48 -6511393#6.81 -6511393#6.115 -723052303 -568586006 -568586005 -568586003 -568586003.29 -568586003.32 -568586003.36 -568586003.39 -568586003.43 -568586003.46 -568586003.50 -568586003.65 -749622503#35 -749622503#35.9 -749622503#35.13 -749622503#35.52 -749622503#35.58 -749622503#35.118 -749622503#35.124 -912290518#12 -912290518#12.6 -912290518#12.9 -912290518#12.11 -912290518#12.12 -912290518#12.53 -912290518#7 -912290518#7.59 6349123#0 6349123#0.7 6349123#0.112 723052304#1 723052304#1.70 6461453#3 6461453#3.11 6461453#3.61 6461453#3.77 6461453#3.91 6461453#6 6461453#6.38 6461453#6.80 6461453#6.92 6461453#6.95 6343952#4 6343952#4.4 6343952#4.8 158612542#11 158612542#11.75 158612542#11.76 -6430737#2 -6430737#2.22 -6430737#2.48 6461453#17 6461453#17.40 6461453#17.73 6461453#17.80 6358498#0 6358498#0.53 -749754754#1 -749754754#1.14 -749754754#1.29 6374789#3 6374789#3.12 6374789#3.121 6384350#12 6384350#12.6 6384350#12.22 6384350#12.25 6384350#12.26 6384350#12.30 6384350#12.34 6384350#12.43 6384350#12.47 6384350#12.53 6384350#12.55 6384350#12.58 6384350#12.61 6384350#12.70 -6358524#2 -6358524#2.6 -6358524#2.122 548654006#0 548654006#0.8 548654006#0.16 548654006#0.24 548654006#0.54 -95600805#1 -95600805#1.11 6474762#5 6474762#5.49 6474762#5.86 428098988#0 428098988#0.8 428098988#0.9 428098988#0.54 428098988#0.75 428246434#0 428246434#0.18 428246435#0 428246435#0.10 428246433 428246433.72 428246432#0 428246432#0.13 171739214#8 171739214#9 171739214#10 171739214#11 -6346526#5 -6346526#5.121 337668916#4 337668916#4.6 337668916#4.52 337668916#6 337668916#6.37 337668916#6.48 160552467#1 160552467#1.43 160552467#1.66 160552467#1.99 160552467#1.104 160552467#1.111 160552467#6 160552467#6.15 160552467#6.20 160552467#6.50 -158882505#5 -158882505#5.47 -6411908#2 -6411908#2.56 -171739214#13 6346524#0 -158882505#2 -158882505#1 -158882505#1.37 -158882558 -896104580#1 -896104580#1.68 428098978#0 428098978#0.6 428098982 428314470 428314464 428098977 621283354 158882511#0 158882511#1 158882511#1.35 158882511#3 158882511#4 -160552467#9 158882517#4 158882517#5 158882517#6 158882517#6.46 158882517#6.66 158882517#6.67 158882517#6.69 158882517#6.71 158882517#6.73 6457203#8 6457203#8.18 6457203#8.28 6457203#8.74 6457203#8.81 6457203#8.98 8111707#0 8111707#0.47 -6505136#14 -6505136#13 -6505136#13.115 8111709#2 8111709#2.49 8111709#4 8111709#4.49 757399066#0 757399066#0.51 757399066#0.87 -6381494#6 -6381494#6.57 -6381494#6.77 -6381494#6.94 -6381494#3 -6381494#3.43 -6381494#1 -6381494#0 292812445#9 292812445#9.49 6386837#0 6386837#1 8071897#0 8071897#0.89 -6444677 481291015#0 481291015#0.20 481291015#0.59 -343521145#3 -343521145#3.32 -343521145#3.66 -343521145#3.101 -343521145#3.142 -343521145#3.155 337739267#0 337739267#1 337739271#0 337739271#0.10 337739271#0.13 337739271#1 337739271#1.6 337739269#0 337739269#1 337739269#1.30 -801995081#6 -801995081#6.9 -801995081#5 -801995081#5.197 -801995081#5.209 256994206#0 256994206#0.8 256994206#0.43 256994206#0.60 460419028#0 460419028#0.11 460419028#0.49 460419028#0.79 460419028#0.95 243349338#0 243349338#0.18 -6360256#3 -6360256#3.44 -6464126#6 460419028#4 243339793#5 -6360256#0 -6360256#0.8 486875123#0 486875123#0.56 486875123#0.88 -185485118#1 6514312#0 6514312#0.70 -6523501#6 -6523501#6.6 -6523501#4 -6523501#4.175 169917351#22 169917351#22.7 169917351#22.72 -6494970#2 -6494970#2.4 -6494970#2.100 6358721#0 6358721#0.9 6415147#4 428247193#3 428247193#3.27 486632638#0 486632638#0.14 486632638#0.27 -428247197#1 -428247197#1.9 -336908264#3 -336908264#2 -336908264#2.145 -185485127#3 -185485127#3.10 6494970#5 6494970#5.205 6494970#7 6494975#0 6494975#0.105 243339793#13 243339793#13.49 243339793#15 243339793#15.46 795671505#0 795671505#0.10 795671505#0.55 6464126#17 6464126#17.40 6501822#11 6464130#0 6464130#0.42 6464130#2 6464130#2.44 6464130#4 6464130#5 -243349331#1 -243349331#1.102 -243349331#0 -243349331#0.131 -6348024#4 -6425683#1 -6506505#2 -6506505#1 -6506505#1.22 -6467510#1 -6467510#1.38 -6449970#2 -185485127#11 6396312#1 6396312#2 -185485117#2 6501822#5 6501822#5.157 -8071924#4 -6472293#5 -6472293#5.39 -6472293#3 185485127#7 185485127#7.45 185485127#7.50 -6501822#2 -6501822#1 -6501822#0 -6501822#0.165 6354836#0 6354836#0.6 6354836#1 6354836#1.40 -642753173 642753174 -6384264 -295783215#1 14374224#0 14374224#0.36 14374224#0.80 14374224#0.83 256997441#3 256997441#3.6 256997441#3.53 6351349#5 -185483733 -6414318#4 -157167355#0"/>
</vehicle>
<vehicle id = "veh7" type= "veh_passenger" depart="3605" >
<route edges =" 817434294 817434294.10 817434294.36 817434294.44 817434294.63 817434294.119 6343949#0 6343949#0.7 6343949#0.86 6343949#3 6343949#3.9 6343949#3.49 620762212#3 620762212#4 620762212#4.122 171739207#2 171739207#2.46 6403874#0 6403874#1 6403874#1.38 6403883#1 158882505#7 158882505#8 -6457203#3 -6457203#3.34 -6457203#3.51 -6457203#3.73 -6457203#3.81 -6457203#0 6384359#0 6384359#0.22 6384359#0.45 6384359#0.50 -6505136#6 -6505136#6.18 -6505136#4 -6505136#4.10 -6505136#4.42 -6505136#4.55 -6505136#4.101 -6505136#4.110 -65588093#3 6430729#13 6430729#13.48 6440348#14 292812445#5 292812445#5.45 -525497324#8 -525497324#7 -525497324#7.39 -525497324#7.54 -525497324#7.112 -525497324#3 620762218#5 620762218#5.18 620762218#5.80 -66558981#7 -66558981#7.65 -66558981#7.83 -66558981#7.105 -66558981#7.123 -66558981#2 -66558981#2.131 -66558981#2.234 -6481166#12 -293775902#14 -293775902#14.49 -293775902#14.96 -293775902#11 -293775902#11.6 -293775902#11.48 -293775902#11.91 -6440371#8 -6440371#8.7 -6440371#8.122 -6440371#8.124 -6440371#8.125 -6440371#5 -6440371#5.4 -6440371#5.6 -6440371#5.7 -6440371#5.119 -6440371#5.121 -353690154#7 -353690154#7.9 -353690154#7.42 -353690154#7.47 -353690154#7.90 22917111#14 22917111#14.7 22917111#14.9 22917111#14.122 22917111#14.123 22917111#14.125 22917111#17 22917111#17.3 22917111#17.5 22917111#17.7 22917111#17.122 -293775902#3 -293775902#3.10 -293775902#3.48 -293775902#3.93 -893866065#10 -893866065#10.7 -893866065#10.49 -893866065#10.90 -353690148#6 -353690148#6.8 -353690148#6.122 -353690148#3 -353690148#3.7 -353690148#3.59 -353690148#3.121 -353690147#3 -353690147#3.7 -353690147#3.110 -353690147#3.122 -6476327#20 -6476327#20.8 -6476327#20.163 -6476327#20.182 -6476327#20.195 -6476327#15 -6476327#15.10 -6476327#15.38 -6476327#15.65 -6376376#6 -6376376#6.8 -6376376#6.89 243338979#0 243338979#0.4 243338979#0.18 243338979#0.32 243338979#0.59 -486844941#1 -486844941#1.10 -486844941#1.46 -486844941#1.58 -486844941#1.70 -486844941#1.89 -436480243#3 -436480243#3.10 -436480243#3.19 -436480243#3.38 -6435230#9 -6435230#8 -6435230#7 -6435230#7.4 -6435230#7.24 -6435230#7.64 -6435230#5 -6435230#5.17 -6435230#4 -6435230#4.33 617435761#0 617435761#0.8 617435761#0.21 617435761#0.40 617435761#0.83 -859189430#2 -859189430#2.5 -859189430#2.54 -859189430#2.102 -859189430#2.105 -859189430#2.109 347092908 347092908.18 347092908.44 347092908.47 347092908.49 6476327#0 6476327#0.4 6476327#0.9 6476327#0.63 6476327#0.102 6476327#4 6476327#4.7 6476327#4.35 6476327#4.86 893868549#12 893868549#12.7 893868549#12.90 893868548#0 893868548#0.6 893868548#0.84 876005346#0 876005346#0.6 876005346#0.88 876005346#3 876005346#4 876005346#4.5 876005346#4.68 901474741#0 901474741#0.6 901474741#0.85 901474741#0.87 -901474742#2 -901474742#2.5 -901474742#2.43 -901474742#2.83 -901477546#2 -901477546#2.6 -901477546#2.45 -901477546#2.87 -901477545#9 -901477545#9.8 -901477545#9.86 6440364#4 6440364#4.6 6440364#4.86 -901474739#6 -901474739#6.7 -901474739#6.37 -901474739#6.73 -22917110#2 -22917110#2.6 -22917110#2.86 -6346769#4 -6346769#4.6 -6346769#4.27 -6346769#4.65 -6346769#4.102 256996974#3 256996974#3.6 256996974#3.29 256996974#3.56 256996974#3.86 256996974#6 256996974#6.9 256996974#6.21 256996974#6.40 256996974#6.89 256996974#11 256996974#11.6 256996974#11.33 256996974#11.65 256996972 256996972.16 256996972.70 6447971#0 6447971#0.49 6447971#0.72 6447971#0.81 6447971#4 6507809#4 -6515975#5 -6515975#5.48 169917351#7 169917351#7.49 6380913#4 6380913#5 6467507#8 6467507#8.87 6516509#8 6516509#8.7 6516509#8.85 6507809#10 6507809#10.8 6507809#10.91 -6360239#7 -6360239#7.6 -6360239#7.47 -6360239#7.86 169917351#16 169917351#16.9 169917351#16.77 -6452520#2 -6452520#2.4 -6452520#2.101 6449462#0 6449462#0.9 6449462#0.46 6449462#3 6449462#3.7 6449462#3.50 6449462#3.60 6449462#3.72 6449462#3.87 795669782#0 795669782#0.54 795669782#2 6371720#2 6497081#9 6497081#9.126 369455641#1 369455641#1.28 369455641#1.78 512126022#0 512126022#0.11 512126022#0.46 185483738#4 185483738#4.14 185483738#6 185483738#6.71 185483738#6.123 -6496652#1 -6496652#1.86 -512126023#2 -512126023#2.37 -512126023#2.47 6513107#0 6513107#0.9 6513107#0.116 6513107#0.121 6433087#0 6433087#0.4 6433087#0.9 -754699003#6 -754699003#6.36 -6351337#5 -6351337#5.5 -6351337#5.8 -6351337#5.119 6496652#4 6496652#4.7 -6367253#4 -6367253#4.7 -6367253#4.119 -6485999#2 -6351337#0 -661086629#2 -661086629#2.7 -6371720#6 -6371720#5 -6371720#5.41 157167355#0"/>
</vehicle>
<vehicle id = "veh8" type= "veh_passenger" depart="7210" >
<route edges =" -813722269#3 -813722269#3.7 -813722269#3.48 -813722269#3.84 -813722269#3.86 569505974#0 569505974#0.10 569505974#0.37 816616073#0 816616073#0.78 813722270#0 813722270#0.7 813722270#0.42 813722270#0.74 813722270#0.75 813722270#0.121 6430729#3 6430729#3.9 6430729#3.48 6430729#6 6430729#6.47 6430729#6.48 6430729#9 6430729#9.48 6430729#11 6430729#11.51 -65588093#2 6343949#10 6343949#10.49 -6440348#10 -6440348#10.4 -6440348#10.6 -6440348#10.48 -6440348#10.83 620762218#3 620762218#3.7 -525497324#2 243349944#4 243349944#4.53 243349944#6 -481291488#4 -481291488#4.47 40416132#0 40416132#0.19 -460419011#2 6464126#3 6464126#3.49 6464126#5 -460419028#3 -460419028#2 -460419028#2.56 -460419028#2.72 -460419028#2.102 -460419028#2.140 396055524#0 396055524#0.9 396055524#0.30 396055524#0.54 396055524#0.65 -6360256#4 -6360256#3 -6360256#3.44 -6360256#1 -6360256#1.102 243339793#6 243339793#6.50 243339793#6.74 243339793#9 243339793#9.48 185485132#3 185485132#3.10 6464126#11 6464126#11.50 6494975#2 243349338#5"/>
</vehicle>
<vehicle id = "veh9" type= "veh_passenger" depart="7210" >
<route edges =" 6457203#17 6457203#18 6457203#18.8 6457203#18.11 37686291#0 37686291#0.47 37686291#0.88 37686291#0.94 37686291#0.98 157284449#0 157284449#0.6 157284449#0.28 242516209#2 242516209#2.53 37657904 603522175 603522175.101 -975126260#3 -975126260#3.49 -975126260#1 -975126260#1.48 -6323849#6 -6323849#6.43 -6403883#6 -6403883#5 -6403883#4 158882511#8 158882511#9 158882511#9.51 6457203#13 6457203#13.62 6368504#3 6368504#3.46 6368504#5 6368504#5.48 6368504#7 6368504#7.50 -6513783#8 -6513783#7 37657905#3 37657905#3.48 37657905#5 37657905#5.10 37657905#5.46 336904472#3 336904472#3.37 336904472#5 336904472#5.77 638348589 638348588#0 -603522176#5 -603522176#5.43 -603522176#5.84 -6381494#15 -603522173#3 -603522173#3.49 6513783#10 6513783#11 6513783#11.206 656838750 656838751 392673856 392673856.85 296370678#0 296370678#0.14 296370678#0.51 296370678#0.58 481291020#0 481291020#0.49 481291020#0.62 481291020#3 481291020#3.24 481291020#3.46 -6383185#15 -6383185#15.9 481291017#2 481291017#2.37 481291017#2.43 481291017#2.49 481291017#2.51 481291017#2.59 481291017#2.71 481291017#2.87 481291017#2.112 481291017#2.124 8071885#2 6483146#0 6483146#0.10 6483146#0.15 6483146#0.49 6483146#0.58 6483146#0.67 -394736758#4 -394736758#4.104 -481291021#6 -481291021#6.10 -481291021#6.14 -481291021#6.20 -481291021#6.36 -481291021#6.79 -481291021#6.92 -481291021#6.102 -481291021#6.112 -481291021#6.122 -481291021#6.133 -481291021#1 6444679 481291024#0 481291024#1 481291024#1.68 481291024#1.82 -179553345#6 -179553345#6.47 -179553345#6.49 -179553345#6.105 -179553345#6.124 -179553345#6.150 -179553345#6.182 -179553345#6.190 -179553345#6.201 -179553345#6.204 394737317#1 394737317#1.24 394737317#1.48 -394736763 -6448615#9 6483146#3 6483146#3.48 159937059#2 159937059#3 159937059#3.69 159937059#3.76 6428558#0 6428558#0.9 6428558#0.56 6428558#0.147 6428558#0.154 6428558#0.157 -170683288#8 -170683288#8.6 -170683288#8.15 -6459736#10 -6459736#10.20 -6459736#10.53 -6459736#10.60 -6495798#8 -6495798#8.42 -6495798#6 -6495798#6.39 -6495798#4 -6345330#1 -65588097#8 -65588097#8.39 -476409332#4 6460085#7 6460085#7.14 6460085#7.41 6460085#9 6460085#9.41 6460085#9.71 6523125#0 65588097#10 65588097#10.40 6522860#1 6448615#0 6448615#0.41 -6459736#1 -6459736#1.49 -735164739 -735164739.6 -735164739.10 -735164739.15 735164738 735164738.9 735164738.37 735164738.47 8071885#0 8071885#0.16 -603522176#12 -603522176#12.42 -603522176#12.44 -603522176#9 -603522176#9.44 -476409334#0 476409333#0 476409333#0.45 -6383185#11 -6383185#11.37 -6383185#11.86 -6383185#11.111 -6383185#11.155 -476409332#1 -476409332#1.39 791722143#0 791722143#0.9 791722143#1 476409328#0 476409328#0.201 6384373#0 -6383185#4 -6383185#4.120 8071925#2 8071925#2.36 8071925#2.74 6460085#0 6460085#0.9 6460085#0.43 6460085#0.101 6384373#2 6384373#2.45 6384373#2.56 6384373#5 6384373#5.40 6384373#5.50 6384373#5.90 6448612#6 6448612#6.328 -170683231#3 -170683231#2 -6356667#1 -6356667#1.147 -6356667#1.181 -428315591#1 -6356671#2 -6356671#2.8 -6356671#2.34 6349021#0 6464371#0 6464371#0.8 6464371#0.32 40416130#0 40416130#1 -6353867#0 170683665#8 6353172#0 40416130#3 40416130#3.42 40416130#3.45 40416130#6 -6369950#3 -6369950#2 -6369950#2.24 -6369950#0 -336908262#6 6521828#0 6521828#0.9 6521828#0.34 6521828#0.134 -6463035#13 -6463035#13.80 -6463035#11 -6463035#11.50 -6463035#9 -6463035#9.48 -6463035#7 -6356676#0 -6494975#10 -6494975#10.123 -6494975#10.131 -6494975#9 -6494975#9.13 -6494975#9.24 243349945#11 243349945#11.47 243349942#1 243349942#1.25 243349942#2 336908262#0 336908262#0.48 -6472289#4 805658294#6 805658294#6.47 805658294#8 -359671039#8 -359671039#8.55 243349945#18 243349945#19 243349945#20 -263665040#2 -263665040#2.22 -263665040#1 -263665040#1.27 -263665040#1.83 -263665040#1.86 -460419010 -460419010.105 -460419010.122 -878126486#2 -878126486#2.9 -878126486#2.10 -878126486#2.42 -243349941#7 -243349941#7.26 -243349941#5 -6464130#6 -243349331#1 -243349331#1.102 -6336174#5 -6506505#4 -259277920#1 -259277920#0 -259277920#0.32 -259277920#0.50 -8071924#5 6501822#7 6441276#0 6441276#0.41 359671039#0 6336174#2 6336174#2.43 6449970#10 6449970#11 6449970#12 -438895608#1 -438895608#0 -438895608#0.27 438895607 438895607.119 160624558#0 160624558#0.9 160624558#0.16 160624558#1 -243349945#16 -243349945#16.50 -6472289#2 -243349944#22 -243349944#22.50 -22760521#3 -6447445#10 -6447445#10.48 -6494975#6 -6494975#6.81 256994205#3 428246847#0 428246847#0.8 428246847#0.22 6386110#0 6386110#0.16 6386110#0.25 6386110#0.55 -243349338#6 -243349338#6.14"/>
</vehicle>
<vehicle id = "veh10" type= "veh_passenger" depart="7210" >
<route edges =" -6522868 -6403883#7 -6323849#4 -6323849#4.14 -6323849#4.28 -6323849#4.52 -6323849#4.61 -6323849#4.72 -6323849#2 6462093 6462093.38 6462093.73 6462093.86 6462093.97 6462093.118 6462093.133 6462093.149 6462093.160 6462093.169 -6428544#13 32143939 -6411908#6 -6411908#5 -6411908#5.12 -6411908#5.22 -6411908#5.31 -6411908#4 158882517#3 158882517#4 158882517#5 -6469837#2 158882505#8 8111709#0 8111709#0.47 8111709#2 8111709#2.49 8111709#4 8111709#4.49 -6513783#5 6384359#8 6384359#9 6384359#9.26 -6381494#3 -6381494#3.43 6463017#6 6463017#6.48 6386837#1 8071897#0 8071897#0.89 -6444677 -292812445#12 -292812445#12.49 337739268 337739268.124 337739267#0 337739267#1 -481291488#10 -481291488#10.44 -481291488#10.61 -481291488#10.85 -481291488#10.132 -481291488#10.142 243349944#7 243349944#8 243349944#9 -396055523#8 -396055523#8.8 243349945#0 243349945#0.6 243349945#0.83 243349945#3 243349945#3.5 243349945#3.45 243349945#3.49 -22917113#6 -243349944#14 -243349944#14.46 -243349944#14.49 -6360256#7 -6360256#7.5 6447445#3 6447445#3.51 -22917113#4 -256994205#0 -256994205#0.33 -396055524#1 -396055524#1.29 -396055524#1.40 -396055524#1.64 -396055524#1.86 460419028#0 460419028#0.11 460419028#0.49 460419028#0.79 460419028#0.95 460419028#3 460419028#4 -243339793#4 -801995082 -6380913#14 -6380913#13 6425675 -460419024#4 -460419024#4.23 -460419024#4.72 -460419024#4.91 -460419024#4.105 -460419024#4.115 353690153#0 353690153#0.8 353690153#0.25 353690153#0.87 486875123#0 486875123#0.56 486875123#0.88 481291012#0 481291012#0.24 481291012#0.32 481291012#2 481291012#2.49 481291012#5 481291012#5.49 6498476 6498476.121 6498476.127 6498476.134 -926425193#0 -926425193#0.24 -926425193#0.35 -926425193#0.76 -926425193#0.112 -428246846 -428246846.4 -428246846.17 -428246846.29 8071924#0 8071924#0.13 8071924#1 8071924#1.18 8071924#1.30 8071924#4 8071924#5 -6396312#4 -6396312#4.43 -6396312#2 -6396312#1 -6396312#0 -6507818#0 6501822#1 -6507813#3 -6507813#3.42 -6507813#3.51 6472293#2 -185485127#6 -185485127#5 -185485127#5.56 -185485127#3 -185485127#3.10 -185485127#1 -6523501#4 -6523501#4.175 -6523501#2 -6523501#2.5 -6523501#2.101 6497081#0 6497081#0.8 6415147#3 6415147#4 6415147#5 6415147#6 6351349#2 6351349#3 6351349#3.107 256997441#6 256997441#6.46 6354836#4 6354836#5 6354836#5.54 6354836#7 6354836#7.92 -6467368#3 6367253#0 6367253#0.7 6485999#3 6485999#3.70 6354794#1 6354794#1.121 -6496652#8 -6496652#8.7 -6496652#6 -6496652#5 -6496652#5.73 -6496652#3 -6496652#3.8 -185483738#8 -185483738#8.6 -185483738#8.58 6485999#0 6485999#0.42 -6351337#0 -661086629#2 -661086629#2.7 -661086629#0 -185483733 -6414318#4 -157167355#0"/>
</vehicle>
<vehicle id = "veh11" type= "veh_passenger" depart="7210" >
<route edges =" 817434294 817434294.10 817434294.36 817434294.44 817434294.63 817434294.119 816616072#4 816616072#4.7 816616072#4.62 816616072#4.121 6430729#0 6430729#0.7 6430729#0.86 813722270#5 813722270#5.7 813722270#5.118 6411908#0 337668916#6 337668916#6.37 337668916#6.48 337668916#8 337668916#8.47 337668916#10 6463027#0 6463027#0.20 6463027#0.21 6463027#0.23 6463027#0.25 6463027#0.26 6463027#0.28 6463027#0.31 6463027#0.33 6463027#0.35 6463027#0.37 6463027#0.39 6463027#0.76 -292812446#4 -292812446#4.6 -292812446#4.35 -292812446#4.44 -292812446#4.56 -292812446#4.99 -292812446#4.111 292812445#0 292812445#0.35 292812445#0.50 292812445#3 292812445#3.49 -6440348#14 6430729#15 6430729#15.48 6430729#17 6430729#17.51 -620762224#0 -66558981#7 -66558981#7.65 -66558981#7.83 -66558981#7.105 -66558981#7.123 -66558981#2 -66558981#2.131 -66558981#2.234 -525497323#1 -525497323#1.48 -6512920#11 -6512920#11.12 -6512920#11.49 -6512920#11.62 -6512920#11.76 -6512920#11.147 -6512920#7 -6512920#7.4 -6512920#7.122 -6512920#7.124 6464138#12 6464138#12.51 6464138#14 -481291488#1 -481291488#0 -481291488#0.69 -481291488#0.82 243339793#0 243339793#0.48 -460419011#0 -460419011#0.11 -460419014 -460419014.67 -460419007#0 -460419007#0.17 -460419007#0.46 460419008#0 460419008#0.50 -6380913#11 -6380913#11.53 -6463532#3 -6463532#3.45 -6515975#7 6467507#6 6467507#6.51 -6380913#5 -6507809#6 -6507809#6.47 -6507809#4 -6447971#4 169917351#6 -6515975#3 -6515975#3.6 -6515975#3.44 -6515975#3.102 256996973#0 256996973#0.33 256996973#0.45 256996973#0.49 256996975#0 256996975#0.50 256996975#0.62 256996975#0.65 256996975#0.91 256996976#0 256996976#0.11 256996976#0.20 256996976#0.46 256996976#0.79 6487445#0 6487445#0.8 6415147#0 6415147#0.61 6415147#2 6497081#2 6497081#2.38 6497081#2.47 6497081#2.53 6497081#2.60 6497081#2.67 6497081#2.70 6497081#2.74 6497081#2.81 6497081#2.120 6497081#6 6497081#6.44 -6414318#2 -6414318#2.8 795669782#2 6371720#2 6371720#3 157167355#0"/>
</vehicle>
<vehicle id = "veh12" type= "veh_passenger" depart="10815" >
<route edges =" -813722269#3 -813722269#3.7 -813722269#3.48 -813722269#3.84 -813722269#3.86 569505974#0 569505974#0.10 569505974#0.37 816616073#0 816616073#0.78 6343949#3 6343949#3.9 6343949#3.49 6343949#6 6343949#7 -8071898#2 -6430729#10 -6430729#10.63 65588100#5 65588100#5.122 171739207#4 171739207#4.40 171739207#4.43 171739207#4.47 171739207#4.50 171739207#4.52 171739207#4.54 171739207#4.77 171739207#4.80 171739207#4.82 171739207#4.85 171739207#4.87 171739207#4.90 171739207#4.113 292812445#0 292812445#0.35 292812445#0.50 -65588093#3 6430729#13 6430729#13.48 6430729#15 6430729#15.48 525497324#8 292812445#7 292812445#7.46 -620762224#1 -620762224#0 343521145#0 343521145#0.47 343521145#0.69 337739267#0 337739267#1 337739271#0 337739271#0.10 337739271#0.13 337739271#1 337739271#1.6 337739269#0 337739269#1 337739269#1.30 337739269#3 337739269#3.69 396055523#5 396055523#5.8 396055523#5.42 396055523#7 396055523#7.122 396055523#9 396055523#9.6 396055523#9.20 396055523#9.54 6447445#0 6447445#0.8 6447445#0.87 6447445#3 6447445#3.51 -22917113#4 256994205#1 -185485132#6 -185485132#6.52 243349338#3 243349338#3.49 6494975#3 6494975#3.99 256994205#3 428246847#0 428246847#0.8 428246847#0.22 6386110#0 6386110#0.16 6386110#0.25 6386110#0.55 -243349338#6 -243349338#6.14"/>
</vehicle>
<vehicle id = "veh13" type= "veh_passenger" depart="10815" >
<route edges =" -816616074#1 -816616074#1.10 -816616074#1.14 -816616074#1.119 428341734#4 428341734#4.8 428246439#0 428246439#0.14 428246438#0 428246438#0.8 428246440#0 428246440#0.62 800744529#0 800744529#0.7 800744529#0.52 800744529#0.89 825336588#0 825336588#0.7 96029553#0 96029553#0.9 96029553#0.15 96029553#0.59 -893866066#2 -893866066#2.7 -893866066#2.122 32135548#0 32135548#0.6 32135548#0.48 32135548#0.53 32135548#0.64 32135548#0.89 32135548#0.90 32135548#5 32135548#5.7 32135548#5.49 32135548#5.88 32135548#9 32135548#9.7 32135548#9.47 32135548#9.63 32135548#9.78 525497323#0 525497323#0.50 525497323#2 525497323#2.81 481291488#3 481291488#3.216 243349944#7 243349944#8 243349944#9 243349944#10 243349944#10.7 243349944#10.84 243349944#13 243349944#13.47 243349944#13.51 243349944#15 243349944#15.48 -185485132#9 -185485132#8 -185485132#8.81 -256994205#1 22917113#4 -6447445#4 -6447445#4.47 -6447445#2 -6447445#2.7 -6447445#2.86 396055523#11 396055523#11.17 396055523#11.23 396055523#11.42 396055523#11.62 396055523#11.85 396055523#11.96 396055523#11.121 -256994206#2 -256994206#2.11 -256994206#2.27 -256994206#2.62 -801995081#2 -801995081#2.109 -801995081#0 243339793#4 243339793#5 243339793#6 243339793#6.50 243339793#6.74 -22917112 -185485118#1 6514312#0 6514312#0.70 926425191#0 926425191#0.5 -6494970#6 -6494970#6.6 185485127#2 185485127#2.70 185485127#4 185485127#4.10 -6391682#2 -6391682#2.31 -6391682#2.42 -6391682#2.52 -6391682#2.64 -6391682#1 -6391682#1.146 6489809#0 6489809#0.40 6415147#6 6351349#2 642753173 -6354836#2 -6354836#2.29 -6354836#0 -6354836#0.81 256996977#8 6396314 6396314.4 6396312#0 185485127#11 6449970#2 6467510#0 6467510#0.41 6506505#0 6506505#0.50 -6463541#4 -6463541#4.39 -6463541#4.42 -6463541#1 6396312#2 -185485117#2 -6501822#4 -6501822#3 -185485127#9 -185485127#9.41 -185485127#9.47 6472293#3 6472293#4 6472293#4.162 8071924#4 8071924#5 259277920#0 259277920#0.29 259277920#0.47 -6449970#7 -6449970#7.42 6425683#0 6425683#1 6348024#4 -259277920#2 -259277920#2.56 6506505#4 6336174#5 6336174#6 243349941#4 243349941#5 -352434864#1 -352434864#1.74 -243349331#3 -243349331#3.51 -243349331#3.121 -6464130#5 -6464130#4 -6464130#3 -6464130#3.41 359671039#2 359671039#3 438895608#1 263665039 263665039.7 263665039.22 263665039.47 352434868 352434868.68 -878126486#2 -878126486#2.9 -878126486#2.10 -878126486#2.42 243349941#8 6447445#21 6447445#21.41 6447445#21.75 6409640#11 243349944#32 336908257#8 336908257#9 -808266757#5 -808266757#5.6 -808266757#3 -808266757#3.78 -808266757#1 -352434874#3 -243349945#19 -532125609#2 243349944#27 -352434874#1 -6447445#16 -6447445#15 359671039#5 359671039#5.12 359671039#6 -243349945#17 160624558#2 -805658294#7 -805658294#7.50 6472289#4 336908262#2 336908262#2.49 6353177#0 6353177#0.8 6353177#0.44 6353177#0.135 6463035#12 6463035#12.7 6521828#4 -170683665#11 -170683665#11.54 -170683665#8 -170683665#7 6349133#2 6349133#2.9 -40416130#0 -6464371#2 -6464371#2.9 -6464371#2.33 -6349021#0 -6356676#2 -6356676#2.14 -6356676#2.25 -6356676#2.40 170683665#3 170683665#3.38 -279467136#1 -6463035#7 -6356676#0 -805680044#9 -805680044#9.50 -185485132#12 -185485132#12.125 -185485132#11 -185485132#11.16 243349945#9 243349945#9.50 -6494975#8 243349944#19 243349944#19.47 243349944#21 243349944#21.48 -6472289#1 6447445#12 6447445#12.47 -438895607 -438895607.10 -160624556 -160624556.131 -243349338#8 -795671505#2 -6464126#16 -6464126#16.47 6386110#4 6386110#4.26 6386110#5 6386110#5.80 428246845 -481291012#7 -481291012#7.22 -481291012#6 -481291012#6.8 6494975#0 6494975#0.105 6494975#1 6494975#1.9 6494975#2 243349338#5"/>
</vehicle>
<vehicle id = "veh14" type= "veh_passenger" depart="10815" >
<route edges =" 817434294 817434294.10 817434294.36 817434294.44 817434294.63 817434294.119 816616072#4 816616072#4.7 816616072#4.62 816616072#4.121 816616072#8 816616072#8.6 816616072#8.121 6346526#0 6346526#0.6 6346526#0.99 6346526#0.121 6346526#4 6346526#4.7 -171739214#11 6368665#0 6368665#0.4 6368665#0.6 6368665#0.48 6368665#2 -158882517#0 -896104580#1 -896104580#1.68 -6414229#15 -6414229#15.10 -6414229#15.45 -752851600#10 -752851600#10.40 -752851600#10.121 6464391#3 6464391#3.6 6464391#3.75 6464391#6 6464391#6.5 6464391#6.66 -6374789#8 -6374789#8.5 -6374789#8.120 6384350#12 6384350#12.6 6384350#12.22 6384350#12.25 6384350#12.26 6384350#12.30 6384350#12.34 6384350#12.43 6384350#12.47 6384350#12.53 6384350#12.55 6384350#12.58 6384350#12.61 6384350#12.70 -6358524#2 -6358524#2.6 -6358524#2.122 -742713664#1 -742713664#1.7 -742713664#1.9 -742713664#1.19 -749754754#1 -749754754#1.14 -749754754#1.29 -749754754#0 -749754754#0.11 -749754755 -749754755.11 -749754755.23 -749754755.34 -749754755.44 -749754755.57 -749754755.70 -749754755.72 -749754755.82 -749754755.92 -749754755.102 -621088608#1 -621088608#1.7 -621088608#1.12 393047811 6474762#0 6474762#0.47 6474762#2 6474762#2.29 6474762#2.32 6474762#2.34 -6461453#18 -6461453#18.7 -6461453#18.14 -6461453#18.47 -6461453#15 -6461453#15.4 -6461453#15.17 -6461453#15.62 -6461453#15.77 -6343952#3 -6343952#3.3 -6343952#3.7 -6343952#2 -6511393#7 -6415868#1 -6415868#1.48 65588116#0 65588116#0.12 65588116#2 65588116#2.4 65588116#2.22 65588116#2.42 65588116#2.48 65588116#2.74 6368829#0 6368829#0.7 6368829#0.9 6368829#0.12 6368829#0.14 6368829#0.18 6368829#0.59 256993082#4 256993082#4.144 436163947#0 436163947#0.8 436163947#0.75 -6366765#24 -6366765#24.9 -6366765#24.38 -6366765#24.40 -6366765#24.42 -6366765#24.43 -6366765#24.47 -6366765#24.51 -6366765#24.58 -6366765#24.79 -6366765#20 -6366765#20.3 -6366765#20.6 -6366765#20.39 -6366765#18 -6366765#18.28 -6366765#18.47 -6366765#18.74 -6366765#18.98 -6366765#18.129 6384350#4 6384350#4.8 6384350#4.48 6384350#4.87 749754758#2 749754758#2.4 749754758#2.121 749754758#5 749754758#5.6 749754758#5.124 -6414229#7 -6414229#7.8 -6414229#7.48 -6414229#7.90 -6366765#6 -6366765#6.8 -6366765#4 -6366765#3 -6366765#3.66 -6366765#3.80 -6366765#3.121 -6366765#3.190 -6366765#3.194 -6366765#3.197 -6366765#3.201 -6366765#3.204 -51476458 -621088606#1 -621088606#0 -621088607#1 6348400#0 215404534#2 -6358515#1 -6358515#0 -8071894#0 -6368518#5 -6368518#5.49 -749754758#10 6346308#4 6346308#4.47 -6374789#12 -6374789#12.53 6414229#11 6358524#9 6358524#9.62 6358524#9.78 6346308#7 6346308#7.38 6346308#7.46 6346308#10 6346308#10.28 6346308#10.34 428098985#0 428098985#0.19 428314460 428314467 428314467.7 428098986 428098986.8 428098986.12 6470834 6470834.1 6470834.5 6470834.9 462701467#0 462701467#0.142 8071381#0 8071381#0.67 6428544#5 6428544#6 -337099385#1 -6523130 -6400858#1 -6400858#1.92 -6400858#1.135 -6400858#1.139 -6400858#1.143 -6400858#1.147 -158882561#3 61958425 -6368665#5 -6368665#5.9 -6368665#5.17 -6368665#5.26 -6368665#5.35 -6368665#5.53 158882511#1 158882511#1.35 -6346524#2 158882517#2 6411908#4 6411908#5 6411908#5.89 6411908#5.98 6411908#5.108 8071379#2 8071379#2.41 160552467#11 160552467#11.10 160552467#11.22 160552467#11.49 160552467#11.58 160552467#11.67 160552467#11.76 160552467#11.83 160552467#11.93 160552467#11.104 160552467#11.114 160552467#11.125 6323849#3 6323849#3.9 6323849#3.21 6323849#3.30 6323849#3.53 6323849#3.67 -6403883#6 6345333 -6457203#14 -6457203#14.67 -6457203#13 -6457203#13.26 -158882511#9 -158882511#9.24 -6469837#3 -6469837#2 -158882505#7 -6403883#1 171739214#20 171739214#21 171739214#21.8 171739214#21.28 171739214#21.32 -6457203#0 6384359#0 6384359#0.22 6384359#0.45 6384359#0.50 6505136#7 6505136#7.55 6505136#7.66 6505136#7.74 6505136#7.92 6505136#7.104 8111709#2 8111709#2.49 -6464042#7 -6464042#7.121 -6464042#7.127 -6464042#7.144 -6464042#7.161 -6464042#2 -6464042#2.80 -6464042#1 -6464042#1.52 -6440348#14 -6430729#14 -6430729#14.49 -65588093#2 -6343949#9 -6343949#9.49 8071898#3 620762214 -349901822#3 -349901822#3.58 -825336588#1 -825336588#1.33 -349901821 -826314456#4 -826314456#4.12 -826314456#4.19 -826314456#4.65 -826314456#4.106 -337673339 -337673337 185882764 185882764.13 185882764.14 185882765 185882765.16 185882765.26 185882765.30 185882765.31 -243338979#28 -243338979#28.13 -243338979#28.49 -243338979#28.142 -243338979#28.143 893866065#3 893866065#3.6 893866065#3.48 893866065#3.88 -353690148#6 -353690148#6.8 -353690148#6.122 893866060#8 893866060#8.7 893866060#8.65 893866060#8.89 893866064#0 893866064#0.7 893866064#0.122 293775902#0 293775902#0.7 293775902#0.52 293775902#0.90 293775902#4 293775902#4.6 293775902#4.49 293775902#4.88 293775902#8 293775902#8.6 293775902#8.49 293775902#8.91 -6512920#7 -6512920#7.4 -6512920#7.122 -6512920#7.124 6464138#12 6464138#12.51 -6481166#10 -6481166#10.6 -6481166#10.8 -6481166#10.120 -6481166#9 -6481166#9.8 -6481166#8 -6481166#8.162 263669069#0 -6447971#7 6463532#0 6463532#0.49 -6515975#7 -6515975#6 -6507809#4 -6507809#3 -6481166#4 -6481166#3 -6481166#3.7 -6481166#3.37 -6481166#3.105 256996972 256996972.16 256996972.70 256996978#0 256996978#0.7 256996978#0.68 256996973#0 256996973#0.33 256996973#0.45 256996973#0.49 6385341#0 6385341#0.19 6385341#0.20 6385341#0.34 6385341#0.47 6385341#0.50 6385341#0.54 6385341#0.58 6385341#0.73 6385341#0.78 6385341#0.81 6385341#0.84 6385341#0.87 6385341#0.126 6385341#0.138 6384260#2 6384260#3 6384260#3.54 -6487445#4 -6487445#4.15 -6487445#4.55 6415147#0 6415147#0.61 6415147#2 6497081#2 6497081#2.38 6497081#2.47 6497081#2.53 6497081#2.60 6497081#2.67 6497081#2.70 6497081#2.74 6497081#2.81 6497081#2.120 6497081#6 6497081#6.44 -6414318#2 -6414318#2.8 795669782#2 6371720#2 6371720#3 157167355#0"/>
</vehicle>
<vehicle id = "veh15" type= "veh_passenger" depart="10815" >
<route edges =" -814326475#2 -814326475#2.9 -814326475#2.24 -814326475#2.41 -814326475#2.70 -814326475#2.91 -6456052#5 -6456052#5.10 -6456052#5.36 -6456052#5.120 -607690679#4 -607690679#4.9 -607690679#4.87 -607690679#4.94 -607690679#4.99 -6447455#5 -6447455#5.3 -6447455#5.8 -6447455#5.47 -6447455#1 -6447455#1.85 -6447455#1.90 -723052304#2 -723052304#2.8 6349123#3 6349123#3.10 6349123#3.63 6349123#3.77 6349123#7 6349123#8 6430733#5 6430733#5.62 6430737#0 6430737#0.47 6430737#0.73 158612542#13 158612542#13.18 158612542#13.36 -6474762#4 -6474762#4.45 -6474762#4.49 -6474762#4.53 -6474762#4.56 -6474762#4.60 -6474762#4.64 -6474762#2 -6474762#2.6 -6474762#2.9 -6474762#2.12 -6474762#1 -6474762#1.50 -8071579 -6430733#1 460421473#2 460421473#2.62 621088608#0 621088608#0.43 621088608#0.48 6479778#0 6479778#0.15 6479778#2 749754757#0 749754757#0.4 749754757#0.6 749754757#0.26 749754757#0.48 749754757#0.55 749754757#0.58 749754757#0.62 749754757#0.64 749754757#0.66 749754757#0.67 749754757#0.68 749754757#0.70 749754757#0.72 749754757#0.73 749754754#0 749754754#0.11 749754754#1 749754754#1.14 749754754#1.29 742713664#0 742713664#0.9 742713664#0.19 742713664#0.21 6358524#0 6358524#0.10 6358524#0.125 6358524#3 6358524#3.6 6358524#3.97 6358524#6 6358524#6.5 6358524#6.55 -6414229#11 -6414229#10 -6414229#10.49 -6414229#10.92 -749754758#7 -749754758#7.3 -749754758#7.122 -749754758#4 -749754758#4.4 -749754758#4.120 -6384350#7 -6384350#7.9 -6384350#7.49 -6384350#7.88 6366765#13 6366765#13.8 6366765#13.39 6366765#13.63 6366765#13.90 6366765#13.109 6366765#19 6366765#19.4 6366765#19.36 6366765#19.40 6366765#21 6366765#21.3 6366765#21.24 6366765#21.30 6366765#21.34 6366765#21.38 6366765#21.40 6366765#21.42 6366765#21.43 6366765#21.72 -436163947#2 -436163947#2.10 -436163947#2.77 -256993082#5 -256993082#5.11 -256993082#3 -256993082#3.4 -256993082#3.32 -256993082#3.38 -508340468#5 -508340468#5.10 -508340468#5.76 -508340468#2 -508340468#2.20 -508340468#2.58 -460423539#2 -460423539#2.8 -460423539#2.47 -460423539#2.71 6415868#0 6415868#0.47 -6511393#6 -6511393#6.32 -6511393#6.48 -6511393#6.81 -6511393#6.115 -6511393#1 -6511393#1.119 -6511397#14 -6511397#14.3 -6511397#14.5 -6511397#14.7 -6511397#14.9 -6511397#14.18 -6511397#14.65 -6462029#13 -6462029#13.9 -6462029#13.48 -6462029#13.90 749622503#26 749622503#26.8 749622503#26.42 749622503#26.49 749622503#26.118 749622503#26.119 749622503#26.123 -532416975#1 -532416975#1.11 -532416975#1.49 -532416975#1.90 -6453045#1 -6453045#1.13 -6453045#1.50 -6453045#1.91 -6502970#8 -6502970#8.8 -6502970#8.67 -6502970#8.86 -6502970#8.104 -6502970#8.119 -6502970#8.122 -6462029#2 -6462029#2.9 -6462029#2.86 -6462029#2.88 -6462029#2.90 -6462029#2.92 -65588103#1 -65588103#1.2 -65588103#1.4 -65588103#1.6 -65588103#1.8 -65588103#1.9 -65588103#1.12 -65588103#1.81 465797044#0 465797044#0.7 465797044#0.21 465797044#0.32 465797044#0.73 465797044#0.86 788424590#2 788424590#2.7 788424590#2.88 -759056694#16 -759056694#16.8 -759056694#16.23 -759056694#16.28 -759056694#16.42 -759056694#16.60 -759056694#16.85 -759056694#10 -759056694#10.10 -759056694#10.50 -759056694#10.73 -759056694#10.89 -759056694#6 -759056694#6.7 -759056694#6.25 -759056694#6.49 -759056694#6.89 -759056694#2 -759056694#2.7 -759056694#2.25 -759056694#2.48 -738637224 -738637224.5 -738637224.9 -738637224.14 -738637224.23 -738637224.30 -165042063#1 -165042063#1.3 -165042063#1.13 -165042063#1.15 -759056491 -759056491.4 -759056491.8 -759056491.13 -759056491.17 -759056491.21 -759056491.26 -759056491.41 -759056491.81 -759056491.83 -759056491.88 -337673342#5 -337673342#5.3 -337673342#5.9 -337673342#5.13 -337673342#5.21 -337673342#5.35 -337673342#5.72 -607691082#1 -607691082#0 -6475815#3 -6475815#3.2 -6475815#3.17 -6475815#3.46 -428089348#3 -428089348#3.15 -428089348#3.21 -428089348#3.28 -353690151#5 -353690151#5.11 -353690151#5.12 -353690151#5.26 -353690151#5.83 -353690151#5.102 -293753571#3 -293753571#3.3 -293753571#3.7 -293753571#3.21 -369877031#7 -369877031#7.10 -369877031#7.98 -369877031#7.191 -749622503#8 -749622503#8.7 -749622503#8.63 -749622503#8.83 -749622503#4 -749622503#4.84 369877024#3 369877024#3.6 369877024#3.87 369877024#3.91 369877024#3.98 369877024#3.100 369877024#3.103 369877024#3.104 -428088900#1 -428088900#1.10 -428088894#1 -428088894#1.25 -428088883#1 -428088883#1.15 -428088897 -428088888 -737711647 -332223490#1 -332223490#1.19 -428088887#1 -428088887#1.12 -428088892 -428088886#1 -428088886#1.24 -428088886#1.35 -428088886#1.45 -65588108#1 -65588108#1.18 -65588108#1.53 -332223489#3 -332223489#3.4 -332223489#3.15 -332223489#3.17 -332223489#3.21 -401497115 -401497115.113 -401497115.170 -401497115.214 -428233435 -460425668 -460425668.5 425646007#0 425646007#0.10 425646007#0.17 425646007#0.20 425646007#0.22 425646007#0.27 -724644768 -724644768.35 6402586#0 6402586#0.1 6402586#0.4 6402586#0.6 6402586#0.12 6402586#0.35 6402586#0.59 6402586#4 6402586#4.72 6402586#4.75 6402586#4.77 6402586#4.80 208021560#0 208021560#0.2 208021560#0.5 208021560#0.8 208021560#0.11 208021560#0.30 208021560#0.39 208021560#0.44 208021560#0.106 208021560#0.125 208021560#0.133 208021560#0.136 739874553#0 739874553#0.66 739874553#0.80 739874553#0.88 333370569#0 333370569#0.6 333370569#0.13 333370569#0.37 333370569#0.43 333370569#0.66 333370569#0.94 333370569#0.155 333370569#0.178 333370566#0 333370566#0.32 6405076#0 6405076#0.10 6405076#0.18 6405076#0.21 6405076#0.58 6405076#0.79 6405076#0.81 6405076#3 6405076#3.4 6405076#3.8 6405076#3.14 6405076#3.20 6405076#3.50 6405076#3.68 6405076#3.84 6405076#6 6405076#6.6 6405076#6.21 6405076#6.26 6405076#6.33 6405076#6.44 6405076#6.49 6405076#6.65 6405076#6.68 6405076#6.71 6405076#6.77 6405076#6.79 6405076#6.82 6405076#6.87 256996971#0 256996971#0.7 256996971#0.23 256996971#0.32 256996971#0.37 256996971#0.85 256996974#0 256996974#0.8 256996974#0.88 6506833#0 6506833#0.9 6506833#0.37 6506833#0.54 6506833#0.84 22917663#11 22917663#11.6 22917663#11.23 22917663#11.87 6465130#3 6465130#3.8 6465130#3.46 6465130#3.84 -347092915#9 -347092915#9.7 -347092915#9.50 -347092915#9.89 6506833#11 6506833#11.9 6506833#11.45 6506833#11.74 6506833#11.79 6506833#15 6506833#15.8 6506833#15.10 6506833#15.35 6506833#18 6506833#18.45 6506833#20 6506833#20.8 6506833#20.47 6506833#20.85 263712957#13 263712957#13.7 263712957#13.54 263712957#13.186 844067889#0 844067889#0.8 844067889#0.47 844067889#0.85 -6371699#5 -6371699#5.8 -6371699#5.153 -6371699#5.162 -6371699#1 -6371699#1.28 573669451#0 573669451#0.28 573669451#0.63 573669451#0.78 573669451#0.83 862387686#0 862387686#0.13 862387686#0.22 -481291008#2 -481291008#2.2 -481291008#2.11 -481291008#2.24 6405732#0 6405732#0.8 6405732#0.12 6405732#0.162 6405732#0.169 22917669#5 22917669#5.7 22917669#5.20 22917669#5.22 22917669#5.27 22917669#5.46 22917669#5.62 22917669#5.86 22917669#11 22917669#11.7 22917669#13 22917669#13.1 22917669#13.41 22917669#13.75 -6388742#24 -6388742#24.5 -6388742#24.72 -6388742#21 -6388742#21.6 -6388742#21.71 -8044210#1 -8044210#1.9 -8044210#1.90 -8044210#1.95 6445481#0 6445481#0.3 6445481#0.6 6445481#0.68 6445481#0.72 -6371699#12 -6371699#12.3 -6371699#12.7 -6371699#12.71 -6371699#12.94 -6371699#12.106 -6388742#15 -6388742#15.8 -6388742#15.46 -6388742#15.84 -6388742#11 -6388742#11.8 -6388742#11.30 -6388742#11.46 -6388742#11.67 -6388742#11.87 -6388742#5 -6388742#5.6 -6388742#5.38 -6388742#2 -6388742#2.30 -6388742#2.38 965874292#7 965874292#7.8 965874292#7.41 965874292#10 965874292#10.35 965874292#12 965874292#12.8 965874292#12.69 158123767#0 158123767#0.10 158123767#0.11 158123767#0.50 158123767#0.74 158123767#0.86 158123767#0.115 158123767#0.122 158123767#0.134 158123767#0.139 158123767#0.166 795669782#0 795669782#0.54 6414318#1 6414318#1.86 6414318#3 -157167355#0"/>
</vehicle>
<vehicle id = "veh16" type= "veh_passenger" depart="14420" >
<route edges =" -813722269#3 -813722269#3.7 -813722269#3.48 -813722269#3.84 -813722269#3.86 620762213#0 620762213#0.9 620762213#0.88 57883609#0 57883609#0.6 57883609#0.57 57883609#3 57883609#3.43 57883609#3.52 57883609#3.60 57883609#3.80 620762214 332092195#0 332092195#0.9 332092195#0.74 460423532#0 460423532#0.2 620762218#0 620762218#0.55 620762218#0.66 620762218#0.68 620762218#0.81 620762218#3 620762218#3.7 -525497324#2 243349944#4 243349944#4.53 243349944#6 243349944#7 460419011#4 -337739269#0 6343960 6343960.10 6343960.16 6343960.20 6343960.24 -343521145#0 -343521145#0.41 -343521145#0.63 620762224#0 -6430729#18 -6430729#18.53 -525497324#7 -525497324#7.39 -525497324#7.54 -525497324#7.112 -6343949#13 -6343949#13.50 -6343949#11 -6343949#11.49 -6343949#9 -6343949#9.49 -8071898#2 -8071898#1 -8071898#1.60 -8071898#1.73 -8071898#1.89 -8071898#1.91 292812446#0 292812446#0.15 292812446#0.27 292812446#0.70 292812446#0.83 292812446#0.91 292812446#0.121 292812446#5 -337668916#11 -337668916#11.23 -337668916#11.39 -337668916#10 6403874#1 6403874#1.38 6403883#1 158882505#7 6469837#2 -158882517#5 6403883#3 6403883#4 6368504#0 6368504#1 6368504#1.33 6368504#3 6368504#3.46 -6505136#15 8111707#2 8111707#2.47 -603522174#1 -603522174#0 603522173#0 603522173#0.48 6513783#10 -603522176#1 -603522176#1.51 -37657904 -242516209#3 -242516209#3.47 -242516209#1 -242516209#1.48 6457203#23 6457203#23.25 6457203#23.175 460423547 6390187#0 6390187#0.22 6390187#0.190 6390187#0.194 6463331#0 6463331#1 -6432879#1 -6432879#1.5 6363153#2 6363153#3 6363153#3.40 6363153#3.50 6363153#3.56 392673856 392673856.85 6434058#0 6434058#0.15 6434058#0.33 6434058#0.56 6434058#0.73 6434058#0.96 6434058#0.116 6434058#0.128 6434058#1 481291021#0 6444679 481291024#0 7978482 -6383185#20 -6383185#20.7 -6383185#20.14 -6383185#20.31 -6383185#20.76 -6383185#20.87 -6383185#20.95 -6383185#18 -6383185#18.50 -6383185#18.92 -481291020#5 -481291020#5.43 -481291020#5.65 -481291020#2 -481291020#2.33 -481291020#2.45 -481291018 481291019#0 481291019#0.47 481291017#0 481291017#0.46 -6383185#13 -603522176#9 -603522176#9.44 -476409334#0 -263666867#4 -263666867#4.46 -263666867#2 -263666867#2.43 -263666867#2.72 -6381494#14 -6381494#14.47 -6381494#14.172 -6368504#11 -6368504#11.50 -6368504#11.52 -6513783#8 -6513783#7 -6513783#6 -6513783#5 -6513783#4 -6513783#4.21 -6513783#4.23 -6513783#4.43 -6513783#4.80 6463017#5 -6381494#1 -6381494#0 292812445#9 292812445#9.49 292812445#11 292812445#11.49 6444677 8071925#0 8071925#0.9 8071925#0.55 6383185#3 6383185#3.8 6384373#1 6460085#2 6460085#2.86 6460085#4 6460085#4.35 -61151096 6383185#6 170683231#10 170683231#10.39 -791722143#0 -791722143#0.80 476409332#0 476409332#0.44 6383185#8 6383185#8.23 6383185#8.67 6383185#8.93 6383185#8.141 476409333#2 476409333#2.45 6460085#12 6460085#12.26 735164737 735164737.10 735164737.15 6522860#0 6522860#0.11 6522860#1 6448615#0 6448615#0.41 6459736#2 6459736#2.37 6459736#2.48 6459736#2.60 6459736#2.65 6459736#2.73 -6495798#8 -6495798#8.42 6522860#11 6522860#11.100 6522860#11.110 6522860#14 6522860#14.12 6522860#14.34 6522860#14.81 6522860#14.110 6522860#14.119 -6349125#3 -6349125#3.8 -6349125#3.20 -6349125#2 -6349125#2.60 -6349125#2.61 -6349125#2.68 -6349125#2.76 -6349125#2.79 -476409332#11 -476409332#11.8 -6349126#4 -6349126#4.29 -6349126#4.47 -6349126#4.62 -6349126#4.68 -6349126#4.76 -6349126#4.79 -6349126#4.104 -854081622#0 -854081622#0.13 -19000995#2 -19000995#2.7 -19000995#2.29 6414237#0 6414237#0.11 -6353867#1 40416130#2 -6353172#0 -170683665#8 -170683665#7 -6349133#1 -6463035#9 -6463035#9.48 279467136#1 -170683665#4 -170683665#4.47 -6356676#1 -6463035#6 -6463035#6.50 -6463035#6.52 -6463035#3 -6463035#2 -6463035#2.46 -6463035#2.71 428315592#0 428315592#0.12 428315592#0.53 428315592#0.95 428315592#3 428315592#3.28 428315592#3.60 428315592#5 428315591#0 428315591#1 428315591#2 428315591#2.6 428315591#2.15 428315591#2.25 428315591#2.59 428315591#2.76 912599280 6488417#0 6488417#0.10 739678026 739678026.4 170683288#0 170683288#0.14 170683231#0 170683231#0.34 6356667#2 476409332#8 170683288#2 170683288#2.7 170683288#2.14 170683288#2.44 -6345330#2 -6495798#3 -476409332#6 -476409332#5 -65588097#6 -170683231#6 -170683231#6.43 -170683231#6.51 -6448612#7 -6448612#7.6 -6384373#8 -6384373#8.6 -6384373#8.46 -6384373#8.57 -65588097#1 -65588097#1.119 -465799093#3 -465799093#3.8 -465799093#3.52 -465799093#3.90 460399791#0 460399791#0.9 460399791#0.31 460399791#0.97 460399791#0.99 92170540#0 92170540#0.10 243334881#0 243334881#0.7 243334881#0.57 243334881#0.96 805680044#1 805680044#1.7 805680044#1.49 805680044#1.91 -22917113#10 -22917113#10.7 -22917113#10.129 -22917113#10.132 -22917113#7 -22917113#7.10 -22917113#7.19 243349945#6 243349945#6.48 243349945#6.88 185485132#11 185485132#11.115 805658294#0 805658294#0.38 805658294#0.52 805658294#2 805658294#2.39 -243349942#1 -243349942#1.104 -243349945#12 -243349945#12.49 -6494975#8 -6494975#7 -6494975#6 -6494975#6.81 256994205#3 428246847#0 428246847#0.8 428246847#0.22 6386110#0 6386110#0.16 6386110#0.25 6386110#0.55 -243349338#6 -243349338#6.14"/>
</vehicle>
<vehicle id = "veh17" type= "veh_passenger" depart="14420" >
<route edges =" -816616074#1 -816616074#1.10 -816616074#1.14 -816616074#1.119 428341734#4 428341734#4.8 428246439#0 428246439#0.14 428246438#0 428246438#0.8 428246440#0 428246440#0.62 800744529#0 800744529#0.7 800744529#0.52 800744529#0.89 825336588#0 825336588#0.7 349901822#2 349901822#2.21 332092195#0 332092195#0.9 332092195#0.74 -22917111#30 -22917111#30.9 -22917111#30.50 -22917111#30.96 -22917111#26 -22917111#26.7 -22917111#26.41 -22917111#26.121 32135548#5 32135548#5.7 32135548#5.49 32135548#5.88 32135548#9 32135548#9.7 32135548#9.47 32135548#9.63 32135548#9.78 525497323#0 525497323#0.50 525497323#2 525497323#2.81 40416132#0 40416132#0.19 -460419011#2 -460419011#1 -460419011#1.97 -460419011#0 -460419011#0.11 460419013#0 460419013#0.51 801995082 243339793#4 243339793#5 -6360256#0 -6360256#0.8 486875123#0 486875123#0.56 486875123#0.88 22917112 22917113#0 22917113#0.56 22917113#2 243349338#2 243349338#3 243349338#3.49 243349338#5"/>
</vehicle>
<vehicle id = "veh18" type= "veh_passenger" depart="14420" >
<route edges =" 817434294 817434294.10 817434294.36 817434294.44 817434294.63 817434294.119 6343949#0 6343949#0.7 6343949#0.86 -816616073#1 -816616073#1.7 -569505974#1 -569505974#1.6 -569505974#1.33 -569505976#2 -569505976#2.9 -569505976#2.88 -569505976#2.115 -569505976#2.119 -569505978#1 -569505978#1.10 -569505979 -569505979.32 -569505979.79 -395714916#1 -395714916#1.12 -568043367 -568043367.41 -568043367.79 893866065#0 893866065#0.10 893866065#0.66 893866065#0.92 -243338979#25 -243338979#25.8 -243338979#25.64 -243338979#25.77 -243338979#25.120 -243338979#20 -243338979#20.7 -243338979#20.121 -243338979#17 -243338979#17.7 -243338979#17.60 -243338979#17.109 -243338979#17.118 -243338979#17.120 -486864438#1 -486864438#1.11 -486864438#1.48 -486864438#1.60 -486864438#1.88 -436480241#1 -436480241#1.12 -436480245#3 -436480245#2 -436480245#2.30 -6494871#2 -6494871#2.9 -6494871#2.89 -243338979#6 -243338979#6.31 -243338979#6.61 486844942#0 486844942#0.5 486844942#0.15 486844942#0.87 486844942#4 486844942#4.7 486844942#4.31 486844942#4.73 486844942#4.89 353690149#0 353690149#0.9 353690149#0.132 353690149#0.196 893866055#0 893866055#0.7 893866055#0.120 893866055#0.121 353690154#0 353690154#0.7 353690154#0.49 353690154#0.90 22917111#14 22917111#14.7 22917111#14.9 22917111#14.122 22917111#14.123 22917111#14.125 6464138#4 6464138#4.6 6464138#4.51 6464138#4.88 6464138#8 6464138#8.7 6464138#8.49 6464138#8.88 -6512920#5 -6512920#5.6 -6512920#5.9 -6512920#5.119 -6512920#5.124 -6512920#3 -6512920#3.8 -6512920#3.9 -6512920#3.19 -6512920#3.59 -6512920#3.92 486874837#0 486874837#1 486874837#2 486874837#2.47 460419011#0 460419011#0.101 243339793#2 243339793#2.49 -801995082 -6380913#14 -6380913#13 6425675 460419024#5 460419024#5.50 460419024#5.63 460419024#5.69 6516509#0 6516509#0.7 6516509#0.30 6516509#0.46 6516509#0.66 6516509#0.90 6516509#0.105 6516509#0.109 -6463536#1 -6463536#1.10 -6463536#1.11 -6463536#1.22 -6463536#1.32 -6463536#1.39 -6463536#1.43 -6463536#1.50 -6463536#1.60 -6463536#1.69 -6380913#7 -6380913#7.22 -6380913#5 -6507809#6 -6507809#6.47 -6515975#5 -6515975#5.48 169917351#7 169917351#7.49 169917351#9 169917351#9.48 169917351#9.87 6516509#15 6516509#15.7 6516509#15.35 6516509#15.48 6516509#15.68 6516509#15.70 6516509#15.79 6516509#15.84 6516509#15.98 6516509#15.101 256996976#0 256996976#0.11 256996976#0.20 256996976#0.46 256996976#0.79 6487445#0 6487445#0.8 6415147#0 6415147#0.61 6449462#3 6449462#3.7 6449462#3.50 6449462#3.60 6449462#3.72 6449462#3.87 795669782#0 795669782#0.54 795669782#2 795669782#3 795846818#0 795846818#0.1 -460418978#2 -460418978#2.5 -460418978#2.73 22917667#0 22917667#0.7 22917667#0.103 22917670#7 22917670#7.7 22917670#7.71 22917670#10 22917670#10.5 22917670#10.34 481291010#3 481291010#3.6 481291010#3.100 -6497081#10 -6497081#10.7 6371720#3 157167355#0"/>
</vehicle>
<vehicle id = "veh19" type= "veh_passenger" depart="14420" >
<route edges =" -814326475#2 -814326475#2.9 -814326475#2.24 -814326475#2.41 -814326475#2.70 -814326475#2.91 -6456052#5 -6456052#5.10 -6456052#5.36 -6456052#5.120 -6456052#1 -6456052#1.10 -6456052#1.62 -607691082#1 -607691082#0 -6475815#3 -6475815#3.2 -6475815#3.17 -6475815#3.46 -428089348#3 -428089348#3.15 -428089348#3.21 -428089348#3.28 -353690151#5 -353690151#5.11 -353690151#5.12 -353690151#5.26 -353690151#5.83 -353690151#5.102 -353690151#2 -353690151#2.9 -353690151#2.22 -353690151#2.24 -353690151#2.39 -353690151#2.72 -353690151#2.92 -433500388#1 -433500388#1.11 -433500388#1.46 -433500388#1.73 -433500388#1.113 -433500388#1.115 -428088900#1 -428088900#1.10 -428088894#1 -428088894#1.25 -532166310#2 -532166310#2.3 -532166310#2.13 -369877039 -369877039.36 -369877039.55 -428088903#1 -428088903#1.15 428231018#0 428231018#0.12 428231018#0.30 465971497#0 465971497#0.10 465971497#0.34 465971498#0 465971498#0.9 465971498#0.59 465971498#0.83 465971498#0.86 465971498#0.88 465971498#0.90 465971498#0.91 6514305#0 6514305#0.3 6514305#0.4 6514305#0.9 6514305#0.14 6514305#0.34 6514305#0.54 -6456044#8 -6456044#8.8 -6456044#8.104 6463530#6 6463530#6.6 6463530#6.49 6463530#6.89 -6343878#8 -6343878#8.7 -6343878#8.85 -347094714#3 -347094714#3.9 -347094714#3.49 -347094714#3.92 6467490#0 6467490#0.7 6467490#0.49 6467490#0.78 -401497115 -401497115.113 -401497115.170 -401497115.214 -428233435 -460425668 -460425668.5 -6457806#2 -6457806#2.21 -6457806#2.25 -6457806#2.30 6465162#0 6465162#0.2 6465162#0.6 6465162#0.11 6465162#0.36 428233434 428233434.31 428233434.58 332223487#0 332223487#0.16 332223487#0.62 332223487#0.98 332223488 332223488.25 332223488.48 332223488.65 332223488.68 332223488.88 347092907#0 347092907#0.3 347092907#0.13 347092907#0.19 347092907#0.26 347092907#0.31 347092907#0.38 347092907#0.40 347092907#0.45 347092907#0.51 332223494#0 332223494#0.18 332223494#0.35 332223494#0.144 332223494#0.171 22760519#0 22760519#0.7 22760519#0.27 22760519#3 22760519#3.9 22760519#3.21 22760519#3.33 22760519#3.91 965874293#0 965874293#0.9 965874293#0.40 965874293#2 965874293#2.45 -749863323#6 -749863323#6.8 -749863323#6.39 -749863323#6.144 -749863323#6.187 -749863323#3 -749863323#3.10 -749863323#3.85 -749863323#3.126 792010738#0 792010738#0.4 792010738#0.9 792010738#0.19 -749863325#1 -749863325#1.6 -749863325#1.16 -749863325#1.39 -749863325#1.43 -749863325#1.51 -749863325#1.75 -749863325#1.82 -749863325#1.101 -749863325#1.117 -749863325#1.139 -749863325#1.157 -749863325#1.165 -749863325#1.172 -749863325#1.175 -749863325#1.187 -749863325#1.189 -749863325#1.199 -749863325#1.212 -749863325#1.248 -749863325#1.271 500021854#0 500021854#0.9 500021854#0.38 500021854#0.82 6477649#6 6477649#6.9 6477649#6.30 6477649#6.32 6477649#6.45 6477649#6.63 6477649#6.92 6477649#6.106 6477649#6.147 6477649#6.175 6477649#6.199 6477649#6.205 6477649#6.230 6477649#6.286 6477649#6.306 6477649#6.322 263712957#10 263712957#10.9 263712957#10.78 6506833#24 6506833#24.9 6506833#24.30 6506833#24.48 6506833#24.87 6371699#2 6371699#2.33 6371699#2.42 6371699#2.187 6371699#6 6371699#6.8 6371699#6.186 -6388742#15 -6388742#15.8 -6388742#15.46 -6388742#15.84 263712958#0 263712958#0.8 263712958#0.45 263712958#0.101 263712958#0.114 263712958#0.117 263712958#0.119 6445479#0 6445479#0.4 6445479#0.8 6445479#0.186 965874292#10 965874292#10.35 965874292#12 965874292#12.8 965874292#12.69 158123767#0 158123767#0.10 158123767#0.11 158123767#0.50 158123767#0.74 158123767#0.86 158123767#0.115 158123767#0.122 158123767#0.134 158123767#0.139 158123767#0.166 795669781 795669781.52 795669781.56 6497081#6 6497081#6.44 6414318#3 -157167355#0"/>
</vehicle>
<vehicle id = "veh20" type= "veh_passenger" depart="18025" >
<route edges =" -813722269#3 -813722269#3.7 -813722269#3.48 -813722269#3.84 -813722269#3.86 620762213#0 620762213#0.9 620762213#0.88 620762212#0 620762212#0.8 620762212#0.52 6343949#6 6343949#7 8071898#3 179551719 179551719.37 179551719.46 179551719.51 179551719.88 179551719.93 179551719.97 739843348#0 739843348#0.4 739843348#0.9 620762218#0 620762218#0.55 620762218#0.66 620762218#0.68 620762218#0.81 -6440348#7 -6440348#7.9 243349944#0 243349944#0.4 243349944#0.20 243349944#0.49 525497324#2 620762218#5 620762218#5.18 620762218#5.80 620762224#0 620762224#1 6381494#0 6381494#1 6463017#6 6463017#6.48 -6386837#0 337739268 337739268.124 337739267#0 337739267#1 -481291488#10 -481291488#10.44 -481291488#10.61 -481291488#10.85 -481291488#10.132 -481291488#10.142 243349944#7 -460419011#3 40416132#1 40416132#1.90 801995081#3 801995081#3.54 801995081#3.66 801995081#6 801995081#6.192 337739269#3 337739269#3.69 -396055523#4 -396055523#4.9 -396055523#4.15 -396055523#4.150 -92170540#0 -92170540#0.2 169730574#0 169730574#0.11 169730574#0.29 169730574#0.31 854082601 854082601.11 854082601.52 460421484#0 460421484#0.12 -337818330 65588097#0 65588097#0.9 65588097#2 65588097#2.69 65588097#4 65588097#4.20 170683231#7 170683231#8 170683231#8.40 6383185#7 476409332#2 476409332#2.43 6460085#7 6460085#7.14 6460085#7.41 6460085#9 6460085#9.41 6460085#9.71 6523125#0 6523125#1 6523125#2 -170683288#5 -170683288#5.41 -170683288#3 -170683288#3.39 -170683288#3.69 -170683288#3.76 -170683288#1 -170683288#1.6 -170683288#1.13 170683231#0 170683231#0.34 -6356667#1 -6356667#1.147 -6356667#1.181 -428315591#1 -428315591#0 -428315592#5 6495798#0 6495798#0.9 6495798#0.43 6495798#2 6495798#3 -6345330#1 -65588097#8 -65588097#8.39 476409332#5 -6448612#8 -6448612#7 -6448612#7.6 -6448612#5 -6448612#5.30 -6448612#3 -6448612#3.16 6463035#3 -6495801#0 -805680044#7 -805680044#7.48 -805680044#7.91 -805680044#4 -805680044#4.8 -805680044#4.49 -805680044#4.92 -6360256#15 -6360256#15.7 -6360256#15.133 361784407#0 361784407#0.8 361784407#0.38 361784407#0.53 -22917113#7 -22917113#7.10 -22917113#7.19 -22917113#6 243349944#15 243349944#15.48 243349944#17 243349944#17.50 -6494975#7 -6494975#6 -6494975#6.81 256994205#3 428246847#0 428246847#0.8 428246847#0.22 6386110#0 6386110#0.16 6386110#0.25 6386110#0.55 -243349338#6 -243349338#6.14"/>
</vehicle>
<vehicle id = "veh21" type= "veh_passenger" depart="18025" >
<route edges =" -816616074#1 -816616074#1.10 -816616074#1.14 -816616074#1.119 428341734#4 428341734#4.8 428246439#0 428246439#0.14 428246438#0 428246438#0.8 428246440#0 428246440#0.62 800744529#0 800744529#0.7 800744529#0.52 800744529#0.89 -349901821 -6476313#2 -6476313#2.11 -6476313#2.29 -6476313#2.98 -6476313#2.99 -6476313#2.103 -6476313#2.107 164418944#4 164418944#4.7 164418944#4.8 164418944#4.29 164418944#4.51 164418944#4.95 32135548#0 32135548#0.6 32135548#0.48 32135548#0.53 32135548#0.64 32135548#0.89 32135548#0.90 32135548#5 32135548#5.7 32135548#5.49 32135548#5.88 -6440371#11 -6440371#11.12 -6440371#11.144 -6440371#8 -6440371#8.7 -6440371#8.122 -6440371#8.124 -6440371#8.125 6464138#8 6464138#8.7 6464138#8.49 6464138#8.88 6464138#12 6464138#12.51 -6481166#10 -6481166#10.6 -6481166#10.8 -6481166#10.120 -6481166#9 -6481166#9.8 486874837#1 -6447971#9 6425689#0 6425689#0.48 -460419007#0 -460419007#0.17 -460419007#0.46 460419008#0 460419008#0.50 6380913#12 6425675 -460419024#4 -460419024#4.23 -460419024#4.72 -460419024#4.91 -460419024#4.105 -460419024#4.115 -460419028#7 -460419028#7.7 -460419028#7.33 -460419028#7.45 -460419028#4 -460419028#3 243349338#0 243349338#0.18 243349338#1 243349338#2 185485132#5 185485132#5.98 256994205#2 256994205#2.24 256994205#2.72 -6494975#4 -6494975#4.53 243349338#5"/>
</vehicle>
<vehicle id = "veh22" type= "veh_passenger" depart="18025" >
<route edges =" 817434294 817434294.10 817434294.36 817434294.44 817434294.63 817434294.119 816616072#4 816616072#4.7 816616072#4.62 816616072#4.121 816616072#8 816616072#8.6 816616072#8.121 158882495#0 158882495#0.6 6411908#0 6411908#1 6411908#1.103 6411908#1.111 -171739214#13 -171739214#12 -171739214#11 -171739214#10 -171739214#9 8071890#0 8071890#0.56 158882505#0 158882505#0.42 158882505#2 158882505#3 6411908#3 -158882517#2 -158882517#1 -158882517#0 -896104581#1 -896104581#1.6 158882511#0 158882511#1 158882511#1.35 158882511#3 158882511#4 -160552467#9 158882517#4 6403883#3 6403883#4 6368504#0 -6469837#4 -6469837#4.19 158882511#9 158882511#9.51 8111707#0 8111707#0.47 8111707#2 8111707#2.47 603522174#2 603522174#2.123 -8111708#5 -8111708#5.7 -8111708#5.45 -8111708#2 -8111708#2.52 -8111708#2.57 -8111708#2.87 -8111708#2.90 -8111708#2.92 -8111708#2.94 -8111708#2.97 -8111708#2.99 -6457203#7 -6457203#7.15 -6457203#7.37 -6457203#7.51 -6457203#7.77 -6457203#7.91 -6457203#3 -6457203#3.34 -6457203#3.51 -6457203#3.73 -6457203#3.81 -6457203#0 -8071899 -337668916#11 -337668916#11.23 -337668916#11.39 -337668916#10 -6403874#0 -65588100#6 -65588100#6.7 -65588100#4 -65588100#4.73 -65588100#4.110 -65588100#1 -65588100#1.65 -826314455#3 -826314455#3.64 -826314455#3.71 -826314455#3.76 -826314455#3.90 -826314455#3.118 -800744529#3 -800744529#3.9 -800744529#3.46 -800744529#3.91 -800744528#1 -800744528#1.8 -800744528#1.16 -800744528#1.37 -800744528#1.72 -337673339 -337673337 185882764 185882764.13 185882764.14 185882765 185882765.16 185882765.26 185882765.30 185882765.31 -243338979#28 -243338979#28.13 -243338979#28.49 -243338979#28.142 -243338979#28.143 -243338979#25 -243338979#25.8 -243338979#25.64 -243338979#25.77 -243338979#25.120 893866060#4 893866060#4.6 893866060#4.48 893866060#4.89 -353690148#3 -353690148#3.7 -353690148#3.59 -353690148#3.121 893866056#0 893866056#0.8 893866056#0.64 893866056#0.88 353690154#0 353690154#0.7 353690154#0.49 353690154#0.90 -22917111#13 -22917111#13.8 -22917111#13.10 -22917111#13.79 -22917111#13.80 -22917111#13.98 -22917111#13.123 -22917111#10 -22917111#10.9 -22917111#10.32 -22917111#10.71 -22917111#10.74 -22917111#10.76 -22917111#10.93 -22917111#10.155 -22917111#10.196 353690160#3 353690160#3.6 353690160#3.90 179552384#0 179552384#0.7 179552384#0.28 179552384#0.44 179552384#0.49 179552384#0.89 465971499#0 465971499#0.6 -6481166#6 6467507#3 -6447971#5 -6507809#3 -6481166#4 169917351#4 169917351#4.51 -6447971#3 -6447971#3.29 -6447971#3.37 -6447971#3.61 256996978#0 256996978#0.7 256996978#0.68 256996973#0 256996973#0.33 256996973#0.45 256996973#0.49 6380913#0 6380913#0.8 6380913#0.45 6380913#0.104 169917351#9 169917351#9.48 169917351#9.87 -6516509#14 -6516509#14.5 -6516509#14.58 -6516509#14.86 6507809#10 6507809#10.8 6507809#10.91 6507809#13 6507809#13.9 6507809#13.77 -6452520#5 -6452520#5.4 -6452520#5.85 -6452520#2 -6452520#2.4 -6452520#2.101 6449462#0 6449462#0.9 6449462#0.46 6415147#2 6415147#3 6415147#4 -428247193#2 -428247193#2.56 -428247193#2.61 -428247193#2.96 -428247193#2.117 -428247193#2.121 -428247193#2.140 -428247193#2.154 -428247195 -428247195.5 -460421481#2 -460421481#2.8 -460421481#2.32 6497081#6 6497081#6.44 6497081#8 6371720#3 157167355#0"/>
</vehicle>
<vehicle id = "veh23" type= "veh_passenger" depart="18025" >
<route edges =" -814326475#2 -814326475#2.9 -814326475#2.24 -814326475#2.41 -814326475#2.70 -814326475#2.91 -723013181#2 -723013181#2.9 -723013181#2.18 -723013181#2.38 -723013181#0 -332601014#3 -332601014#3.31 -332601014#3.36 -332601014#3.42 -428246436#1 -428246436#1.13 -428246436#1.22 -428246436#1.37 -808907363#3 -808907363#3.25 -808907363#3.35 -808907363#3.48 -808907363#3.53 -808907363#3.61 -797328240#3 -797328240#3.13 -797328240#3.26 -797328240#3.65 -797328240#3.93 -797328240#3.115 -337673342#5 -337673342#5.3 -337673342#5.9 -337673342#5.13 -337673342#5.21 -337673342#5.35 -337673342#5.72 -607691082#1 -607691082#0 -6475815#3 -6475815#3.2 -6475815#3.17 -6475815#3.46 -428089348#3 -428089348#3.15 -428089348#3.21 -428089348#3.28 332223491#0 332223491#0.12 6438604#0 6438604#0.3 6438604#0.6 6438604#0.8 6438604#0.10 6438604#0.11 6438604#0.13 6438604#0.44 6438604#0.60 -22927969#14 -22927969#14.8 -22927969#14.47 -22927969#14.89 293753570#6 293753570#6.10 293753570#6.38 293753570#6.84 293753570#6.86 -368560864#2 -368560864#2.7 -368560864#2.11 -368560864#2.84 -368560864#2.86 -368560864#2.88 -6462029#17 -6462029#17.2 -6462029#17.5 -6462029#17.7 -6462029#17.45 -6462029#17.88 -6511397#10 -6511397#10.7 -6511397#10.83 -6511397#7 -6511397#7.8 -6511397#7.39 -6511397#7.86 -22927969#6 -22927969#6.8 -22927969#6.48 -22927969#6.90 -749622503#18 -749622503#18.7 -749622503#18.55 -749622503#18.81 -428227803#1 -428227803#1.9 -428227860 -428227860.14 -428227828 -428227842 -428227822#1 -428227822#1.17 -428227833#1 -428227833#1.13 -428227838 -428227854#1 -428227854#1.5 -428227818 -428227865#1 -428227865#1.18 338073583#14 338073583#14.11 338073583#14.23 338073583#14.40 338073583#14.60 338073583#14.86 -80574890#3 -80574890#3.8 -80574890#3.48 -80574890#3.78 -80574890#3.88 -621283347#4 -621283347#4.8 -621283347#4.61 -621283347#4.75 -621283347#4.82 -169511255#15 -169511255#15.10 -169511255#15.84 -169511255#12 -169511255#12.10 -169511255#12.35 -169511255#12.49 -169511255#12.84 -6394322#7 -6394322#7.9 -6394322#7.12 -6394322#7.45 -6394322#7.94 -8111067#5 -8111067#5.7 -8111067#5.83 -8111067#2 -8111067#2.7 -8111067#2.83 51817330#3 51817330#3.5 51817330#3.8 51817330#3.26 51817330#3.42 51817330#3.89 169511255#0 169511255#0.10 169511255#0.47 169511255#0.84 263672096#8 263672096#8.8 263672096#8.49 263672096#8.68 263672096#8.88 338073583#4 338073583#4.8 338073583#4.15 338073583#4.79 338073583#4.84 338073583#7 338073583#7.8 338073583#7.14 338073583#7.85 263672156#3 263672156#3.7 263672156#3.57 263672156#3.86 369877031#0 369877031#0.10 369877031#0.31 369877031#0.46 369877031#0.88 369877031#5 369877031#5.5 369877031#5.98 369877031#5.186 293753571#0 293753571#0.5 293753571#0.20 293753571#0.24 -353690151#2 -353690151#2.9 -353690151#2.22 -353690151#2.24 -353690151#2.39 -353690151#2.72 -353690151#2.92 -433500388#1 -433500388#1.11 -433500388#1.46 -433500388#1.73 -433500388#1.113 -433500388#1.115 -369877024#7 -369877024#7.3 -369877024#7.5 -369877024#7.8 -369877024#7.10 -369877024#7.16 -369877024#7.21 -369877024#7.102 -749622503#2 -749622503#2.9 -749622503#2.29 -749622503#2.64 -749622503#2.84 -369877039 -369877039.36 -369877039.55 -428088903#1 -428088903#1.15 428231560#0 428231560#0.10 338073582#0 338073582#0.20 -6502980#13 -6502980#13.10 -6502980#13.20 -6502980#13.36 -6502980#13.49 -6502980#13.55 -6502980#13.82 -6502980#7 -6502980#7.6 -6502980#7.48 -6502980#7.86 -6502980#3 -6502980#3.7 -6502980#3.69 -6502980#3.84 -169511256#4 -169511256#4.8 -169511256#4.43 -169511256#4.89 -6344598#3 -6344598#3.7 -6344598#3.19 -6344598#3.58 -6344598#3.85 -6344598#3.87 -621283341#3 -621283341#3.7 -621283341#3.91 -621283341#3.97 -621283341#3.101 621283344#0 621283344#0.5 621283344#0.17 621283344#0.28 621283344#0.68 621283344#0.82 621283344#4 621283344#4.5 621283344#4.44 428234723 347094712#0 347094712#0.21 -332223489#3 -332223489#3.4 -332223489#3.15 -332223489#3.17 -332223489#3.21 -401497115 -401497115.113 -401497115.170 -401497115.214 -428233435 -460425668 -460425668.5 -6457806#2 -6457806#2.21 -6457806#2.25 -6457806#2.30 6476922#0 6476922#0.13 6476922#0.24 6476922#0.37 6476922#0.60 6476922#0.67 436480244#0 436480244#0.2 436480244#0.5 436480244#0.11 6435230#0 6435230#0.33 6435230#0.60 -617435760#4 -617435760#4.12 -617435760#4.51 -617435760#4.53 6343878#0 6343878#0.6 6343878#0.85 6343878#0.89 6343878#3 6343878#3.6 6343878#3.84 347094714#4 347094714#4.6 347094714#4.48 347094714#4.87 6435230#6 6435230#6.29 6435230#6.70 6435230#6.89 6435230#8 6376376#0 6376376#0.9 6376376#0.35 6376376#0.88 6376376#0.97 6376376#4 6376376#4.5 6376376#4.86 -6476327#11 893868547#0 893868547#0.8 893868547#0.91 876005346#0 876005346#0.6 876005346#0.88 876005346#3 876005346#4 876005346#4.5 876005346#4.68 -6440364#9 -6440364#9.7 -6440364#9.83 901474739#7 901474739#7.8 901474739#7.82 -901477546#2 -901477546#2.6 -901477546#2.45 -901477546#2.87 -901474740#3 -901474740#3.7 -901474740#3.53 -901474740#3.61 -901474740#3.102 243338978#0 243338978#0.9 243338978#0.58 243338978#0.71 243338978#4 243338978#4.8 243338978#4.84 243338978#7 243338978#7.8 243338978#7.38 243338978#7.45 243338978#7.74 965874293#0 965874293#0.9 965874293#0.40 49394452#8 49394452#8.8 49394452#8.188 -6388742#2 -6388742#2.30 -6388742#2.38 965874292#7 965874292#7.8 965874292#7.41 965874292#10 965874292#10.35 965874292#12 965874292#12.8 965874292#12.69 158123767#0 158123767#0.10 158123767#0.11 158123767#0.50 158123767#0.74 158123767#0.86 158123767#0.115 158123767#0.122 158123767#0.134 158123767#0.139 158123767#0.166 795669782#0 795669782#0.54 6414318#1 6414318#1.86 6414318#3 -157167355#0"/>
</vehicle>
<vehicle id = "veh24" type= "veh_passenger" depart="21630" >
<route edges =" -813722269#3 -813722269#3.7 -813722269#3.48 -813722269#3.84 -813722269#3.86 620762213#0 620762213#0.9 620762213#0.88 620762212#0 620762212#0.8 620762212#0.52 620762212#3 6430729#6 6430729#6.47 6430729#6.48 6430729#9 6430729#9.48 6430729#11 6430729#11.51 6430729#13 6430729#13.48 -6440348#13 -6440348#13.56 -6440348#13.66 -6440348#13.122 -6440348#13.124 6343949#12 6343949#12.47 -525497324#3 -525497324#2 243349944#4 243349944#4.53 243349944#6 243349944#7 243349944#8 243349944#9 243349944#10 243349944#10.7 243349944#10.84 -6360256#7 -6360256#7.5 6447445#3 6447445#3.51 6447445#5 6447445#5.47 185485132#9 243349944#17 243349944#17.50 243349944#19 243349944#19.47 243349942#0 243349942#0.100 243349945#13 243349945#13.48 6472289#3 805658294#6 805658294#6.47 160624558#3 160624558#3.42 336908262#4 336908262#4.6 -359671039#10 -359671039#10.86 -359671039#8 -359671039#8.55 243349945#18 243349945#19 352434874#3 808266757#1 263665040#4 263665040#4.7 263665040#4.17 263665040#4.26 263665040#4.35 263665040#4.44 263665040#4.53 263665040#4.62 263665040#4.71 263665040#4.80 6477474#0 6477474#0.14 6477474#0.21 6511939#0 6511939#0.25 6511939#0.34 6511939#0.44 6511939#0.53 6511939#0.62 6511939#0.72 6511939#0.81 6511939#0.90 6511939#0.100 6472195#0 6472195#0.10 6472195#0.14 6472195#0.18 6472195#0.42 6472195#0.49 6472195#0.55 6472195#0.56 6472195#0.62 6472195#0.71 6472195#2 6472195#2.117 6472195#2.124 6472195#2.126 6472195#2.128 6472195#2.134 6472195#2.151 6472195#2.158 6472195#2.165 6472195#2.173 6472195#4 40416130#15 40416130#15.35 40416130#18 40416130#18.5 -304120724 -304120724.10 -8071850 -8071850.30 -8071850.45 -8071850.53 -8071850.63 -8071850.75 -8071850.81 -8071850.89 -8071849#6 -8071849#6.38 -8071849#6.58 -8071849#6.73 -8071849#6.138 -8071849#6.148 -8071849#6.163 -8071849#6.177 -8071849#6.221 -8071849#3 -8071849#2 -8071849#2.11 -8071849#2.20 -8071849#1 -8071849#1.124 -8071849#1.147 -8071849#1.171 6430750#2 6430750#2.14 6430750#2.25 -6345302#1 -6345302#1.12 -6345302#1.17 -6343958#3 -6343958#2 -337698847#1 -379811772#3 -379811772#3.95 -379811772#3.97 -379811772#3.160 -379811772#3.180 -379811772#3.212 -379811772#3.234 -379811772#3.256 -379811772#3.281 -379811772#3.302 -379811772#3.325 -6447459 6468802#2 6468802#2.5 6468802#2.11 6468802#2.21 6468802#3 6468802#3.17 6468802#3.25 6468802#3.32 6468802#3.72 6468802#3.76 6468802#3.80 6468802#3.83 6468802#3.156 6468802#3.211 6468802#5 6468802#5.103 6468802#5.110 6468802#5.118 6468802#5.125 6468802#6 -336908261#1 -336908261#1.8 -336908261#1.34 -336908261#1.75 -32135618#2 -32135618#2.30 -6409627#1 -6409627#1.40 808266757#4 808266757#4.120 -336908257#9 -336908257#8 -336908257#7 -6447445#25 -6447445#25.7 -6447445#25.41 -6447445#23 -6447445#23.8 -6447445#23.42 243349941#9 243349941#9.43 -243349944#29 -243349944#28 -243349944#27 -243349944#26 -359671039#5 -359671039#5.121 6447445#15 -532125609#0 -438895608#1 -359671039#3 243349338#10 -6449970#11 6464130#4 6464130#5 6464130#6 -243349941#4 -6336174#6 -6336174#5 -6336174#4 -6336174#3 -6336174#3.40 -6336174#1 -6336174#1.42 -6501822#9 -6501822#9.25 -6501822#8 -6501822#8.7 -6501822#7 -6501822#6 -6501822#6.44 -185485117#1 6472293#4 6472293#4.162 -8071924#3 -8071924#3.39 -8071924#3.51 -8071924#0 -8071924#0.15 428246846 428246846.12 428246846.24 428246846.37 926425193#0 926425193#0.8 926425193#0.43 926425193#0.84 926425193#0.95 926425193#1 926425193#1.12 926425193#1.24 926425193#1.34 -926425191#2 -6494970#6 -6494970#6.6 185485127#2 185485127#2.70 336908264#2 336908264#2.29 -169917351#27 -169917351#27.11 -169917351#27.76 -6494970#2 -6494970#2.4 -6494970#2.100 -460421482#6 -460421482#6.7 -460421482#6.25 -460421482#6.31 -460421482#6.72 6523501#0 6523501#0.9 6523501#0.105 6523501#3 6523501#3.6 6523501#5 6523501#5.201 185485132#0 185485132#0.7 185485132#2 185485132#2.104 243339793#11 243339793#11.47 243339793#13 243339793#13.49 243339793#15 243339793#15.46 795671505#0 795671505#0.10 795671505#0.55 795671505#2 243349338#8 160624556 160624556.10 438895607 438895607.119 160624558#0 160624558#0.9 160624558#0.16 -243349944#24 -243349944#24.50 -6472289#1 -6447445#11 -22760521#2 -22760521#2.81 -22760521#2.121 428246847#0 428246847#0.8 428246847#0.22 6386110#0 6386110#0.16 6386110#0.25 6386110#0.55 -243349338#6 -243349338#6.14"/>
</vehicle>
<vehicle id = "veh25" type= "veh_passenger" depart="21630" >
<route edges =" -816616074#1 -816616074#1.10 -816616074#1.14 -816616074#1.119 428341734#4 428341734#4.8 428246439#0 428246439#0.14 428246438#0 428246438#0.8 428246440#0 428246440#0.62 800744529#0 800744529#0.7 800744529#0.52 800744529#0.89 -349901821 349901822#0 349901822#0.9 96029553#0 96029553#0.9 96029553#0.15 96029553#0.59 -893866066#2 -893866066#2.7 -893866066#2.122 -353690150#2 -353690150#2.8 -353690150#2.144 293775902#0 293775902#0.7 293775902#0.52 293775902#0.90 293775902#4 293775902#4.6 293775902#4.49 293775902#4.88 293775902#8 293775902#8.6 293775902#8.49 293775902#8.91 293775902#12 293775902#12.3 293775902#12.50 -6481166#11 -6481166#11.122 -6481166#11.125 6464138#14 -481291488#1 6464126#0 6464126#0.46 6464126#0.49 6464126#3 6464126#3.49 6464126#5 -460419028#3 -460419028#2 -460419028#2.56 -460419028#2.72 -460419028#2.102 -460419028#2.140 396055524#0 396055524#0.9 396055524#0.30 396055524#0.54 396055524#0.65 -6360256#4 243349338#1 22917113#3 256994205#1 -185485132#6 -185485132#6.52 -185485132#4 6464126#11 6464126#11.50 6494975#2 243349338#5"/>
</vehicle>
<vehicle id = "veh26" type= "veh_passenger" depart="21630" >
<route edges =" 817434294 817434294.10 817434294.36 817434294.44 817434294.63 817434294.119 6343949#0 6343949#0.7 6343949#0.86 6343949#3 6343949#3.9 6343949#3.49 -620762212#2 -620762212#2.76 -620762212#2.120 -800744530#5 -800744530#5.9 -800744530#5.19 -800744530#5.73 -800744530#5.84 -800744530#5.118 -428246440#1 -428246440#1.7 -428246438#1 -428246438#1.17 -569505978#1 -569505978#1.10 -569505979 -569505979.32 -569505979.79 -395714916#1 -395714916#1.12 -568043367 -568043367.41 -568043367.79 -293775903#2 -293775903#2.10 -293775903#2.37 -293775903#2.89 -293775903#2.118 -475161306#1 -475161306#1.9 -475161306#1.92 -475161306#1.120 353690155#0 353690155#0.10 353690155#0.51 353690155#0.58 353690155#0.90 353690157#0 353690157#0.5 353690157#0.19 353690157#0.47 353690157#0.72 353690157#0.87 -353690147#3 -353690147#3.7 -353690147#3.110 -353690147#3.122 353690152#0 353690152#0.9 353690152#0.90 460419029#0 460419029#0.7 460419029#0.51 460419029#0.53 460419029#0.89 460419029#5 460419029#5.8 460419029#5.52 460419029#5.91 6440371#0 6440371#0.7 6440371#0.8 6440371#0.119 6440371#0.121 353690154#8 353690154#8.7 353690154#8.42 353690154#8.50 353690154#8.92 353690154#12 353690154#12.6 353690154#12.32 353690154#15 353690154#15.50 -6447971#10 -6447971#10.11 -6447971#9 -6447971#8 263669069#1 263669069#1.41 263669069#1.48 263669069#1.70 -6515975#8 -6463532#1 -6463532#1.50 -6447971#6 6467507#4 6467507#4.48 6467507#6 6467507#6.51 6467507#8 6467507#8.87 6516509#8 6516509#8.7 6516509#8.85 6516509#11 6516509#11.6 6516509#11.34 6516509#11.86 169917351#12 169917351#12.9 169917351#12.42 169917351#12.90 169917351#16 169917351#16.9 169917351#16.77 6452520#3 6452520#3.7 6452520#3.88 6452520#6 6452520#6.7 185485118#0 185485118#0.64 185485118#0.103 185485118#0.149 185485118#1 481291012#0 481291012#0.24 481291012#0.32 -185485132#1 -185485132#1.196 -6523501#6 -6523501#6.6 185485127#1 6494970#5 6494970#5.205 926425191#2 926425191#3 926425191#4 926425191#4.20 185485117#1 6501822#5 6501822#5.157 6501822#7 6501822#8 6501822#8.52 6501822#9 6501822#9.6 6501822#10 6501822#11 6464130#0 6464130#0.42 -359671039#1 6336174#2 6336174#2.43 6336174#4 6336174#5 6336174#6 -243349941#3 -32143377#1 -32143377#1.40 -259277920#2 -259277920#2.56 -259277920#1 -259277920#0 -259277920#0.32 -259277920#0.50 -6396312#4 -6396312#4.43 185485117#3 6449970#5 6425683#0 -6506505#2 -6463541#4 -6463541#4.39 -6463541#4.42 -6463541#1 -6463541#0 -6501822#3 -6501822#2 -6501822#1 6507818#0 -6396314 -6396314.166 620762211#0 620762211#0.4 620762211#0.8 620762211#0.77 620762211#1 620762211#1.10 620762211#1.36 620762211#1.73 620762211#1.115 620762211#1.170 620762211#1.178 6335280 6335280.16 6335280.119 6335280.125 -661086630#4 -661086630#4.5 -661086630#4.8 -661086630#4.25 -661086630#4.63 -6354836#4 -6354836#3 -642753173 -6351349#2 -6351349#1 -6351349#1.48 -6351349#1.82 -256996977#5 -256996977#5.28 -256996977#5.42 -256996977#5.43 -256996977#2 -256996977#2.16 -256996977#2.48 -460421482#10 -460421482#10.13 -460421482#10.46 -460421482#10.56 -460421482#10.76 6358721#0 6358721#0.9 6415147#4 -428247193#2 -428247193#2.56 -428247193#2.61 -428247193#2.96 -428247193#2.117 -428247193#2.121 -428247193#2.140 -428247193#2.154 -428247195 -428247195.5 -428247194#1 -428247194#1.9 -428247194#1.28 -157167355#3 -157167355#3.5 -157167355#3.43 -6414318#3 -6414318#2 -6414318#2.8 -6414318#0 -6414318#0.76 -6414318#0.81 460418987#0 460418987#0.4 460418987#0.8 -6414273#1 -6414273#1.22 -460418992#4 -460418992#4.6 -460418992#4.125 -460418992#2 -460418992#2.50 -460418992#2.92 -337742188#11 -337742188#11.8 -337742188#11.28 -337742188#11.102 -337742188#8 -337742188#8.6 -337742188#8.83 -337742188#8.106 -337742188#8.123 -337742188#8.140 -337742188#8.159 22917673#2 22917673#2.9 22917673#2.36 22917673#2.81 22917673#5 22917673#5.15 22917673#5.76 -795846818#7 -795846818#7.6 -795846818#7.174 -795846818#4 -795846818#4.7 -795846818#4.95 -795846818#4.102 460418978#3 460418978#3.9 460418978#3.49 369455641#1 369455641#1.28 369455641#1.78 512126021#0 512126021#0.7 512126021#0.31 512126021#0.66 157167355#0"/>
</vehicle>
<vehicle id = "veh27" type= "veh_passenger" depart="21630" >
<route edges =" -814326475#2 -814326475#2.9 -814326475#2.24 -814326475#2.41 -814326475#2.70 -814326475#2.91 -6456052#5 -6456052#5.10 -6456052#5.36 -6456052#5.120 -6456052#1 -6456052#1.10 -6456052#1.62 -337673342#0 6343890#0 6343890#0.54 6343890#0.56 6343890#0.58 6343890#0.59 6343890#0.61 -6475815#6 -6475815#6.16 -6475815#4 -6475815#3 -6475815#3.2 -6475815#3.17 -6475815#3.46 -428089348#3 -428089348#3.15 -428089348#3.21 -428089348#3.28 -428341218#2 -428341218#2.3 -428341218#2.9 -65588069#1 -65588069#1.13 -428089351#1 -428089351#1.16 -428089352#1 -428089352#1.12 -428089350 -428089350.17 -428089350.43 -428227812#1 -428227812#1.9 -428227851#1 -428227851#1.5 -13726934#1 -13726934#1.5 -428227808 -428227847#1 -428227847#1.17 -749622503#15 -749622503#15.9 -749622503#15.31 -749622503#15.46 -749622503#15.51 -749622503#15.67 -749622503#15.85 -749622503#8 -749622503#8.7 -749622503#8.63 -749622503#8.83 -749622503#4 -749622503#4.84 -749622503#2 -749622503#2.9 -749622503#2.29 -749622503#2.64 -749622503#2.84 -6522514#4 -6522514#4.7 -6522514#4.36 -6522514#4.61 -6522514#4.66 -6522514#4.67 -6522514#4.73 -332223490#1 -332223490#1.19 -428088887#1 -428088887#1.12 -428088892 -428088886#1 -428088886#1.24 -428088886#1.35 -428088886#1.45 6463530#0 6463530#0.2 6463530#0.8 6463530#0.13 6463530#0.54 6463530#0.95 -6456044#5 -6456044#5.7 -6456044#5.86 6467490#0 6467490#0.7 6467490#0.49 6467490#0.78 -401497115 -401497115.113 -401497115.170 -401497115.214 -537677478#2 -537677478#2.10 -537677478#2.11 -537677478#2.28 -537677478#2.36 -6456046#3 -6456046#3.6 -6456046#3.36 -6456046#3.42 -6456046#3.49 -6456046#3.56 -6456046#3.62 -6456046#3.66 -6456046#3.71 -6456046#3.76 -6456046#3.92 -6456046#3.102 -6456046#3.109 -6456046#3.112 6402586#0 6402586#0.1 6402586#0.4 6402586#0.6 6402586#0.12 6402586#0.35 6402586#0.59 6415152 6415152.4 6415152.15 6415152.33 6415152.51 6415152.63 6415152.76 6415152.94 6415152.108 6415152.133 6415152.155 858621141#0 858621141#0.35 858621141#0.40 622519661 622519661.8 347092914#0 347092914#0.10 347092914#0.14 347092914#0.24 347092914#0.54 347092914#0.75 347092914#0.87 893872038 893872038.9 893872038.14 893872038.97 893872038.123 893872038.129 893872038.134 347092915#0 347092915#0.8 347092915#0.32 347092915#0.44 347092915#0.89 347092915#0.182 -6506833#10 -6506833#10.7 -6506833#10.19 -6506833#10.42 -6506833#10.46 -6506833#10.83 -22917663#10 -22917663#10.10 -22917663#10.41 -22917663#10.64 -22917663#10.92 -6458014#2 -6458014#2.7 -6458014#2.83 32135545#0 32135545#0.9 32135545#0.63 32135545#0.103 901477545#0 901477545#0.8 901477545#0.89 901477545#4 901477545#4.7 901477545#4.69 901477545#7 901477545#7.5 901477545#7.83 169917351#0 169917351#0.8 169917351#0.53 169917351#0.88 6481166#4 -6507809#2 -6507809#2.9 -6507809#2.91 901474742#0 901474742#0.6 901474742#0.45 901474742#0.83 6467507#0 6467507#0.7 6467507#0.88 6467507#3 -6447971#5 -6447971#4 169917351#6 -6515975#3 -6515975#3.6 -6515975#3.44 -6515975#3.102 6445835#0 6445835#0.41 -22917665#1 -22917665#1.88 881403606#4 881403606#4.53 881403608#2 881403608#2.2 881403608#2.5 881403608#2.8 881403608#2.11 881403608#3 881403608#3.2 881403608#3.5 881403608#3.8 881403608#3.11 976099002#0 976099002#0.34 976099002#0.40 976099002#0.64 965874292#7 965874292#7.8 965874292#7.41 965874292#10 965874292#10.35 965874292#12 965874292#12.8 965874292#12.69 158123767#0 158123767#0.10 158123767#0.11 158123767#0.50 158123767#0.74 158123767#0.86 158123767#0.115 158123767#0.122 158123767#0.134 158123767#0.139 158123767#0.166 795669781 795669781.52 795669781.56 460421481#1 460421481#1.61 460421481#1.85 256997441#0 256997441#0.11 256997441#0.18 256997441#0.62 256997441#3 256997441#3.6 256997441#3.53 -6351349#4 -6351349#4.8 642753173 6354836#3 6354836#4 6354836#5 6354836#5.54 6354836#7 6354836#7.92 -6467368#3 6367253#0 6367253#0.7 -6485999#2 -6485999#1 -6485999#1.42 -185483738#5 -185483738#5.100 -185483738#3 -185483738#3.11 -185483738#3.19 -185483738#2 -185483738#2.93 -185483738#0 -6414318#4 -157167355#0"/>
</vehicle>
</routes>
