<?xml version="1.0" encoding="UTF-8"?>
<routes xmlns:xsi="http: // www.w3.org/2001/XMLSchema-instance" xsi:noNamespaceSchemaLocation="http: // sumo.dlr.de/xsd/routes_file.xsd">
<vType id="veh_passenger" vClass="passenger"/>

<vehicle id = "veh0" type= "veh_passenger" depart="0" >
<route edges =" -813722269#3 -813722269#3.7 -813722269#3.48 -813722269#3.84 -813722269#3.86 620762213#0 620762213#0.9 620762213#0.88 620762212#0 620762212#0.8 620762212#0.52 6343949#6 6343949#7 6343949#8 6343949#8.52 6343949#10 6343949#10.49 6343949#12 6343949#12.47 -525497324#3 -525497324#2 243349944#4 243349944#4.53 243349944#6 243349944#7 -460419011#3 -460419011#2 6464126#3 6464126#3.49 6464126#5 -460419028#3 243349338#0 243349338#0.18 243349338#1 243349338#2 243349338#3 243349338#3.49 243349338#5"/>
</vehicle>
<vehicle id = "veh1" type= "veh_passenger" depart="0" >
<route edges =" -6457203#16 -6457203#16.59 975126260#0 975126260#0.49 -6505136#16 6368504#5 6368504#5.48 6368504#7 6368504#7.50 -6513783#8 -6513783#7 37657905#3 37657905#3.48 37657905#5 37657905#5.10 37657905#5.46 37657905#7 37657905#7.49 476409329 -6383185#5 6384373#1 6384373#2 6384373#2.45 6384373#2.56 -65588097#1 -65588097#1.119 337818330 6463035#0 6463035#0.14 6463035#0.38 6463035#3 -6495801#0 -185485132#12 -185485132#12.125 -185485132#11 -185485132#11.16 243349945#9 243349945#9.50 -6494975#8 -6494975#7 -6494975#6 -6494975#6.81 256994205#3 428246847#0 428246847#0.8 428246847#0.22 6386110#0 6386110#0.16 6386110#0.25 6386110#0.55 -243349338#6 -243349338#6.14"/>
</vehicle>
<vehicle id = "veh2" type= "veh_passenger" depart="0" >
<route edges =" -6522868 -6403883#7 -6403883#6 -6403883#5 -6403883#4 -6403883#3 -6403883#2 158882505#7 158882505#8 8111709#0 8111709#0.47 8111709#2 8111709#2.49 8111709#4 8111709#4.49 -6513783#5 6384359#8 6384359#9 6384359#9.26 -6381494#3 -6381494#3.43 6463017#6 6463017#6.48 -6386837#0 337739268 337739268.124 337739267#0 337818462 337818462.3 337818462.6 337739271#1 337739271#1.6 337739269#0 -460419011#4 243349944#8 -801995081#5 -801995081#5.197 -801995081#5.209 -801995081#2 -801995081#2.109 -801995081#0 243339793#4 243339793#5 243339793#6 243339793#6.50 243339793#6.74 -22917112 -185485118#1 6514312#0 6514312#0.70 -6523501#6 -6523501#6.6 185485127#1 -6494970#4 -6494970#4.172 -6494970#2 -6494970#2.4 -6494970#2.100 6358721#0 6358721#0.9 6415147#4 6415147#5 6415147#6 6351349#2 6351349#3 6351349#3.107 6351349#5 -185483733 -6414318#4 -157167355#0"/>
</vehicle>
<vehicle id = "veh3" type= "veh_passenger" depart="0" >
<route edges =" 817434294 817434294.10 817434294.36 817434294.44 817434294.63 817434294.119 6343949#0 6343949#0.7 6343949#0.86 6343949#3 6343949#3.9 6343949#3.49 620762212#3 6430729#6 6430729#6.47 6430729#6.48 6430729#9 6430729#9.48 6430729#11 6430729#11.51 6430729#13 6430729#13.48 6430729#15 6430729#15.48 6430729#17 6430729#17.51 -620762224#0 -66558981#7 -66558981#7.65 -66558981#7.83 -66558981#7.105 -66558981#7.123 -66558981#2 -66558981#2.131 -66558981#2.234 525497323#2 525497323#2.81 -481291488#2 -481291488#1 -481291488#0 -481291488#0.69 -481291488#0.82 -6447971#10 -6447971#10.11 -6447971#9 -6447971#8 -6447971#7 -6447971#6 -6447971#5 -6447971#4 169917351#6 169917351#7 169917351#7.49 169917351#9 169917351#9.48 169917351#9.87 169917351#12 169917351#12.9 169917351#12.42 169917351#12.90 -6360239#3 -6360239#3.6 -6360239#3.69 -6360239#3.102 6487445#0 6487445#0.8 6415147#0 6415147#0.61 6449462#3 6449462#3.7 6449462#3.50 6449462#3.60 6449462#3.72 6449462#3.87 795669782#0 795669782#0.54 795669782#2 6371720#2 6371720#3 157167355#0"/>
</vehicle>
<vehicle id = "veh4" type= "veh_passenger" depart="3605" >
<route edges =" -813722269#3 -813722269#3.7 -813722269#3.48 -813722269#3.84 -813722269#3.86 620762213#0 620762213#0.9 620762213#0.88 57883609#0 57883609#0.6 57883609#0.57 65588100#0 65588100#0.63 65588100#2 65588100#2.20 65588100#2.57 6430729#9 6430729#9.48 6430729#11 6430729#11.51 -65588093#2 6343949#10 6343949#10.49 -6440348#10 -6440348#10.4 -6440348#10.6 -6440348#10.48 -6440348#10.83 -6440348#7 -6440348#7.9 243349944#0 243349944#0.4 243349944#0.20 243349944#0.49 243349944#4 243349944#4.53 243349944#6 -481291488#4 -481291488#4.47 -481291488#2 -481291488#1 6464126#0 6464126#0.46 6464126#0.49 -460419011#1 -460419011#1.97 243339793#2 243339793#2.49 -801995082 481291014#0 481291014#0.53 353690153#0 353690153#0.8 353690153#0.25 353690153#0.87 6360256#0 6360256#0.104 243339793#6 243339793#6.50 243339793#6.74 22917113#0 22917113#0.56 22917113#2 243349338#2 243349338#3 243349338#3.49 243349338#5"/>
</vehicle>
<vehicle id = "veh5" type= "veh_passenger" depart="3605" >
<route edges =" -6522868 6403883#8 6428544#16 6428544#16.6 6428544#16.107 6457203#18 6457203#18.8 6457203#18.11 6457203#20 6457203#20.10 6457203#20.25 6457203#20.27 6457203#23 6457203#23.25 6457203#23.175 460423547 6390187#0 6390187#0.22 6390187#0.190 6390187#0.194 6463331#0 6463331#1 -6432879#1 -6432879#1.5 -6363153#1 -157284449#1 242516209#2 242516209#2.53 37657904 603522176#0 603522176#0.48 6513783#11 6513783#11.206 945555824#0 945555824#0.41 -6381494#16 603522176#4 603522176#4.7 603522176#4.48 603522176#6 603522176#6.51 603522176#8 603522176#8.47 -6383185#12 -476409333#1 -476409333#1.43 -263666867#4 -263666867#4.46 -263666867#2 -263666867#2.43 -263666867#2.72 -603522173#3 -603522173#3.49 -603522173#1 -603522173#1.50 -975126260#3 -975126260#3.49 -6505136#16 6368504#5 6368504#5.48 6368504#7 6368504#7.50 -6513783#8 -170683231#20 -170683231#20.51 -170683231#18 -170683231#18.37 -170683231#18.49 -336904472#4 -336904472#4.96 37657905#7 37657905#7.49 -791722143#1 -791722143#0 -791722143#0.80 476409332#0 476409332#0.44 476409332#2 476409332#2.43 -6460085#6 -6460085#6.27 -6460085#5 -6460085#5.109 -61151096 -6383185#5 6384373#1 6384373#2 6384373#2.45 6384373#2.56 -65588097#1 -65588097#1.119 -465799093#3 -465799093#3.8 -465799093#3.52 -465799093#3.90 460399791#0 460399791#0.9 460399791#0.31 460399791#0.97 460399791#0.99 169730574#0 169730574#0.11 169730574#0.29 169730574#0.31 854082601 854082601.11 854082601.52 460421484#0 460421484#0.12 428315592#0 428315592#0.12 428315592#0.53 428315592#0.95 -6448612#3 -6448612#3.16 -6448612#1 -6448612#1.133 805680044#5 805680044#5.6 805680044#5.49 -185485132#12 -185485132#12.125 -185485132#11 -185485132#11.16 243349945#9 243349945#9.50 -6494975#8 -6494975#7 -6494975#6 -6494975#6.81 256994205#3 428246847#0 428246847#0.8 428246847#0.22 6386110#0 6386110#0.16 6386110#0.25 6386110#0.55 -243349338#6 -243349338#6.14"/>
</vehicle>
<vehicle id = "veh6" type= "veh_passenger" depart="3605" >
<route edges =" -6457203#16 -6457203#16.59 -6457203#15 -6457203#15.22 -6345333 6403883#6 -6323849#4 -6323849#4.14 -6323849#4.28 -6323849#4.52 -6323849#4.61 -6323849#4.72 -6323849#2 -6323849#1 -6323849#1.28 -6411908#6 -8071379#1 -8071379#1.46 6346524#4 6346524#4.124 6346524#4.138 6346524#7 -6428544#10 -6428544#10.8 -6428544#10.15 -6428544#10.34 -6428544#10.40 -6428544#10.45 -6428544#10.52 -337099385#1 -6523130 428098973 428098976#0 428098976#0.28 428098976#0.31 -6428544#5 8071381#2 -8071658#1 -8071658#1.35 -6384935#5 -6384935#5.4 -6428544#3 -6428544#3.82 -6358515#2 -6358515#1 8071895#0 8071895#1 -462701467#1 -462701467#1.25 -6470834 -6470834.4 -6470834.8 -6470834.12 -428098986 -428098986.2 -428098986.6 -428314467 -428314467.16 -428314460 -428098985#1 -428098985#1.1 -6346308#11 -6346308#11.43 -6346308#11.48 -752851600#12 -752851600#12.41 6414229#13 6414229#13.35 6414229#13.70 -428098979#1 -428098979#1.6 -428314461 -428314458 -428098983 -428098983.7 -428098980#1 -428098980#1.12 -428098984#1 -428098984#1.6 -428098987#2 -428098987#2.4 -428098987#2.32 -428098981 171739214#8 171739214#9 171739214#10 6368665#0 6368665#0.4 6368665#0.6 6368665#0.48 6368665#2 6368665#3 6368665#3.5 158882511#1 158882511#1.35 -6346524#2 -6346524#1 158882505#3 6411908#3 158882517#3 158882517#4 6403883#3 6403883#4 6368504#0 -6469837#4 -6469837#4.19 158882511#9 158882511#9.51 8111707#0 8111707#0.47 8111707#2 8111707#2.47 603522174#2 603522174#2.123 -8111708#5 -8111708#5.7 -8111708#5.45 -6505136#13 -6505136#13.115 8111709#2 8111709#2.49 8111709#4 8111709#4.49 -6513783#5 6384359#8 6384359#9 6384359#9.26 -6381494#3 -6381494#3.43 6463017#6 6463017#6.48 -6386837#0 337739268 337739268.124 337739267#0 337739267#1 -481291488#10 -481291488#10.44 -481291488#10.61 -481291488#10.85 -481291488#10.132 -481291488#10.142 243349944#7 460419011#4 337739269#1 337739269#1.30 337739269#3 337739269#3.69 396055523#5 396055523#5.8 396055523#5.42 243349945#0 243349945#0.6 243349945#0.83 -6360256#9 -6360256#9.6 -6360256#7 -6360256#7.5 -6360256#5 -396055524#1 -396055524#1.29 -396055524#1.40 -396055524#1.64 -396055524#1.86 460419028#0 460419028#0.11 460419028#0.49 460419028#0.79 460419028#0.95 460419028#3 -6464126#5 -801995081#0 243339793#4 243339793#5 -6360256#0 -6360256#0.8 486875123#0 486875123#0.56 486875123#0.88 481291012#0 481291012#0.24 481291012#0.32 -185485132#1 -185485132#1.196 926425191#0 926425191#0.5 926425191#2 926425193#2 926425193#2.6 926425193#2.94 926425193#2.182 926425193#2.204 926425193#2.206 -185485127#3 -185485127#3.10 -185485127#1 -185485127#0 -6467507#14 -6467507#14.73 -6360239#9 -6360239#9.84 6507809#13 6507809#13.9 6507809#13.77 -6452520#5 -6452520#5.4 -6452520#5.85 -6452520#2 -6452520#2.4 -6452520#2.101 460421482#0 460421482#0.8 460421482#0.73 460421482#3 460421482#3.8 460421482#3.48 460421482#3.55 460421482#3.72 6358721#0 6358721#0.9 6415147#4 428247193#3 428247193#3.27 486632638#0 486632638#0.14 486632638#0.27 256996977#0 256996977#0.9 256996977#0.40 6391682#0 6391682#0.62 6391682#2 6391682#2.12 6391682#2.24 6391682#2.34 6391682#2.45 185485127#6 185485127#7 185485127#7.45 185485127#7.50 -6501822#2 -6501822#1 6507818#0 -6396314 -6396314.166 620762211#0 620762211#0.4 620762211#0.8 620762211#0.77 -6415147#8 6354836#1 6354836#1.40 -642753173 6351349#3 6351349#3.107 256997441#6 256997441#6.46 6354836#4 6354836#5 6354836#5.54 6354836#7 6354836#7.92 6467368#4 6354794#0 -6485999#4 -6485999#4.7 -6367253#1 -6367253#1.137 -6467368#2 -661086629#2 -661086629#2.7 -661086629#0 -185483733 -6414318#4 -157167355#0"/>
</vehicle>
<vehicle id = "veh7" type= "veh_passenger" depart="3605" >
<route edges =" 817434294 817434294.10 817434294.36 817434294.44 817434294.63 817434294.119 6343949#0 6343949#0.7 6343949#0.86 813722270#0 813722270#0.7 813722270#0.42 813722270#0.74 813722270#0.75 813722270#0.121 6430729#3 6430729#3.9 6430729#3.48 620762212#4 620762212#4.122 171739207#2 171739207#2.46 171739207#4 171739207#4.40 171739207#4.43 171739207#4.47 171739207#4.50 171739207#4.52 171739207#4.54 171739207#4.77 171739207#4.80 171739207#4.82 171739207#4.85 171739207#4.87 171739207#4.90 171739207#4.113 292812446#0 292812446#0.15 292812446#0.27 292812446#0.70 292812446#0.83 292812446#0.91 292812446#0.121 -6463027#1 -6463027#1.9 -6463027#1.45 -6463027#1.48 -6463027#1.50 -6463027#1.52 -6463027#1.54 -6463027#1.56 -6463027#1.58 -6463027#1.60 -6463027#1.62 -6463027#1.63 -6463027#1.65 -337668916#10 -337668916#9 -337668916#9.50 -337668916#7 -337668916#7.49 -337668916#7.60 -6411908#0 -158882495#1 -158882495#1.91 6346526#0 6346526#0.6 6346526#0.99 6346526#0.121 6346526#4 6346526#4.7 171739214#12 171739214#13 6411908#2 6411908#2.39 158882505#4 158882505#4.31 158882505#6 -6403883#1 171739214#20 171739214#21 171739214#21.8 171739214#21.28 171739214#21.32 -6457203#0 6384359#0 6384359#0.22 6384359#0.45 6384359#0.50 6384359#4 6384359#4.13 6384359#4.31 6384359#4.51 -6464042#2 -6464042#2.80 -6464042#1 -6464042#1.52 292812445#5 292812445#5.45 6513783#0 6513783#1 6513783#1.64 6463017#5 -6381494#1 -6381494#0 -620762224#1 -620762224#0 -66558981#7 -66558981#7.65 -66558981#7.83 -66558981#7.105 -66558981#7.123 -66558981#2 -66558981#2.131 -66558981#2.234 -6481166#12 -6481166#11 -6481166#11.122 -6481166#11.125 -6464138#13 -6464138#13.47 -6464138#11 -6464138#11.9 -6464138#11.48 -6464138#11.90 -6440371#5 -6440371#5.4 -6440371#5.6 -6440371#5.7 -6440371#5.119 -6440371#5.121 -6440371#2 -6440371#2.9 -6440371#2.11 -6440371#2.121 -6440371#2.122 460419029#9 460419029#9.7 460419029#9.45 486874837#0 6481166#9 6481166#9.121 353690154#15 353690154#15.50 -6447971#10 -6447971#10.11 -6447971#9 -6447971#8 263669069#1 263669069#1.41 263669069#1.48 263669069#1.70 -6515975#8 -6515975#7 -6467507#5 -6467507#5.50 -6467507#3 -6467507#2 -6467507#2.10 -6467507#2.91 -901474741#2 -901474741#2.7 -901474741#2.9 -901474741#2.88 -6440364#9 -6440364#9.7 -6440364#9.83 901474739#7 901474739#7.8 901474739#7.82 6507809#0 6507809#0.7 6507809#0.88 6507809#3 6507809#4 -6515975#5 -6515975#5.48 -169917351#6 -169917351#5 -169917351#5.46 -6481166#3 -6481166#3.7 -6481166#3.37 -6481166#3.105 256996972 256996972.16 256996972.70 881403606#0 881403606#0.12 881403606#0.42 881403606#0.83 881403606#0.85 22917665#0 22917665#0.7 -6445835#1 -6445835#1.53 256996973#0 256996973#0.33 256996973#0.45 256996973#0.49 6380913#0 6380913#0.8 6380913#0.45 6380913#0.104 6380913#4 6380913#5 6467507#8 6467507#8.87 6516509#8 6516509#8.7 6516509#8.85 6516509#11 6516509#11.6 6516509#11.34 6516509#11.86 6516509#15 6516509#15.7 6516509#15.35 6516509#15.48 6516509#15.68 6516509#15.70 6516509#15.79 6516509#15.84 6516509#15.98 6516509#15.101 6461236#0 6461236#0.9 6461236#0.24 6461236#0.44 6461236#0.58 6461236#0.60 6384260#3 6384260#3.54 -6487445#4 -6487445#4.15 -6487445#4.55 6415147#0 6415147#0.61 6415147#2 6497081#2 6497081#2.38 6497081#2.47 6497081#2.53 6497081#2.60 6497081#2.67 6497081#2.70 6497081#2.74 6497081#2.81 6497081#2.120 6497081#6 6497081#6.44 -6414318#2 -6414318#2.8 795669782#2 6371720#2 6371720#3 157167355#0"/>
</vehicle>
<vehicle id = "veh8" type= "veh_passenger" depart="7210" >
<route edges =" -816616074#1 -816616074#1.10 -816616074#1.14 -816616074#1.119 428341734#4 428341734#4.8 428246439#0 428246439#0.14 428246438#0 428246438#0.8 428246440#0 428246440#0.62 800744530#0 800744530#0.11 800744530#0.45 800744530#0.57 800744530#0.111 800744530#0.121 620762212#0 620762212#0.8 620762212#0.52 6343949#6 6343949#7 8071898#3 179551719 179551719.37 179551719.46 179551719.51 179551719.88 179551719.93 179551719.97 739843348#0 739843348#0.4 739843348#0.9 620762218#0 620762218#0.55 620762218#0.66 620762218#0.68 620762218#0.81 -6440348#7 -6440348#7.9 -6440348#5 -6440348#5.15 -6440348#5.21 -6440348#5.35 -6440348#5.44 -6440348#5.122 8071900#8 8071900#8.6 8071900#8.7 8071900#8.49 8071900#8.53 525497324#1 243349944#4 243349944#4.53 243349944#6 243349944#7 -460419011#3 -460419011#2 -460419011#1 -460419011#1.97 243339793#2 243339793#2.49 801995081#0 6464126#5 6464126#6 6360256#2 6360256#2.128 -243349338#0 -243349338#0.76 -460419028#2 -460419028#2.56 -460419028#2.72 -460419028#2.102 -460419028#2.140 396055524#0 396055524#0.9 396055524#0.30 396055524#0.54 396055524#0.65 256994205#0 256994205#0.67 22917113#4 6447445#5 6447445#5.47 -185485132#8 -185485132#8.81 256994205#2 256994205#2.24 256994205#2.72 -6494975#4 -6494975#4.53 243349338#5"/>
</vehicle>
<vehicle id = "veh9" type= "veh_passenger" depart="7210" >
<route edges =" -6457203#16 -6457203#16.59 975126260#0 975126260#0.49 -6505136#16 -6505136#15 -6505136#14 8111708#3 8111708#3.48 8111708#3.86 -603522174#3 -603522174#3.8 -603522174#1 -603522174#0 603522173#0 603522173#0.48 -6513783#9 -6513783#8 -170683231#20 -170683231#20.51 -170683231#18 -170683231#18.37 -170683231#18.49 336904472#5 336904472#5.77 6368504#15 6368504#15.40 6368504#15.46 6368504#15.67 476409332#0 476409332#0.44 -6383185#7 -6383185#6 -6383185#5 6384373#1 6460085#2 6460085#2.86 6464374 65588097#4 65588097#4.20 170683231#7 6460085#6 6460085#6.62 6460085#7 6460085#7.14 6460085#7.41 6460085#9 6460085#9.41 6460085#9.71 6523125#0 -65588097#9 -65588097#8 -65588097#8.39 476409332#5 476409332#6 6495798#3 6495798#4 6495798#5 6495798#5.42 6522860#11 6522860#11.100 6522860#11.110 -170683288#6 6523125#3 6523125#3.26 6523125#3.40 6523125#3.61 -6349125#3 -6349125#3.8 -6349125#3.20 -6349125#2 -6349125#2.60 -6349125#2.61 -6349125#2.68 -6349125#2.76 -6349125#2.79 -476409332#11 -476409332#11.8 -476409332#10 -476409332#10.10 -476409332#8 -6356667#2 170683231#2 170683231#3 -6448612#7 -6448612#7.6 -6448612#5 -6448612#5.30 -428315592#2 -428315592#2.25 -428315592#2.67 -428315592#2.108 -460421484#1 -460421484#1.13 -6486416#2 -6486416#2.9 -6486416#2.116 -6360256#15 -6360256#15.7 -6360256#15.133 361784407#0 361784407#0.8 361784407#0.38 361784407#0.53 22917113#8 22917113#8.9 22917113#8.12 22917113#8.134 805680044#5 805680044#5.6 805680044#5.49 -185485132#12 -185485132#12.125 805658294#0 805658294#0.38 805658294#0.52 6494975#10 6494975#10.11 6494975#10.19 805680044#10 336908262#0 336908262#0.48 6349133#0 -6463035#9 -6463035#9.48 279467136#1 279467136#2 279467136#2.29 279467136#2.52 40416130#0 40416130#1 40416130#2 -6353172#0 -6353177#4 6463035#12 6463035#12.7 6463035#14 -6369950#0 -336908262#6 -336908262#5 -336908262#5.80 -160624558#4 -160624558#4.98 805658294#8 -359671039#8 -359671039#8.55 -243349945#17 -243349945#16 -243349945#16.50 -6472289#2 -243349944#22 -243349944#22.50 -22760521#3 -6447445#10 -6447445#10.48 -6494975#6 -6494975#6.81 256994205#3 428246847#0 428246847#0.8 428246847#0.22 6386110#0 6386110#0.16 6386110#0.25 6386110#0.55 -243349338#6 -243349338#6.14"/>
</vehicle>
<vehicle id = "veh10" type= "veh_passenger" depart="7210" >
<route edges =" 6457203#17 -6428544#18 -6428544#18.43 -6428544#18.144 -6403883#8 -6403883#7 -6403883#6 -6403883#5 -6403883#4 -6403883#3 -158882517#4 160552467#9 -158882511#4 -158882511#3 -158882511#2 -158882511#2.44 -6368665#4 -6368665#4.121 -6368665#2 158882505#2 -6346524#0 171739214#13 171739214#14 171739214#15 171739214#15.31 171739214#15.57 6403883#1 158882505#7 -6469837#1 -6469837#1.51 171739214#21 171739214#21.8 171739214#21.28 171739214#21.32 6457203#1 6457203#1.8 6457203#1.16 6457203#1.38 6457203#1.55 8111709#0 8111709#0.47 -6505136#12 -6505136#12.73 -6505136#12.84 -6505136#12.102 -6505136#12.111 -6505136#12.122 6384359#4 6384359#4.13 6384359#4.31 6384359#4.51 6464042#3 6464042#3.16 6464042#3.33 6464042#3.50 6464042#3.56 8111709#4 8111709#4.49 6513783#6 37657905#3 37657905#3.48 -6381494#8 -6381494#8.122 -6381494#8.124 -6381494#6 -6381494#6.57 -6381494#6.77 -6381494#6.94 -6381494#3 -6381494#3.43 6463017#6 6463017#6.48 6386837#1 6386837#2 6384359#12 6384359#12.14 6384359#12.24 6384359#12.93 -6444677 -292812445#12 -292812445#12.49 337739268 337739268.124 337739267#0 337739267#1 337739271#0 337739271#0.10 337739271#0.13 337739271#1 337739271#1.6 337739269#0 -460419011#4 243349944#8 243349944#9 -396055523#8 -396055523#8.8 243349945#0 243349945#0.6 243349945#0.83 -6360256#9 -6360256#9.6 243349944#13 243349944#13.47 243349944#13.51 -22917113#5 -6447445#4 -6447445#4.47 -6447445#2 -6447445#2.7 -6447445#2.86 396055523#11 396055523#11.17 396055523#11.23 396055523#11.42 396055523#11.62 396055523#11.85 396055523#11.96 396055523#11.121 -256994206#2 -256994206#2.11 -256994206#2.27 -256994206#2.62 -801995081#2 -801995081#2.109 -801995081#0 -801995082 481291014#0 481291014#0.53 -460419028#7 -460419028#7.7 -460419028#7.33 -460419028#7.45 -460419028#4 -460419028#3 243349338#0 243349338#0.18 -6360256#3 -6360256#3.44 6464126#7 6464126#7.50 -22917113#1 -22917113#1.55 243339793#9 243339793#9.48 185485132#3 185485132#3.10 6464126#11 6464126#11.50 -6494975#1 -6494975#1.103 -6494975#0 -6494975#0.7 481291012#5 481291012#5.49 481291012#7 481291012#7.20 -428246845 -6386110#6 -6386110#6.5 243339793#15 243339793#15.46 -6472293#6 -6472293#6.7 -6472293#5 -6472293#5.39 -6472293#3 -185485127#6 -185485127#5 -185485127#5.56 336908264#2 336908264#2.29 336908264#3 428247197#0 428247197#0.12 -460421482#10 -460421482#10.13 -460421482#10.46 -460421482#10.56 -460421482#10.76 -460421482#6 -460421482#6.7 -460421482#6.25 -460421482#6.31 -460421482#6.72 6497081#0 6497081#0.8 6415147#3 6415147#4 6415147#5 6415147#6 -6351349#1 -6351349#1.48 -6351349#1.82 6472293#0 6472293#0.6 6472293#0.29 6507813#1 6507813#1.41 6507813#1.49 6501822#2 185485127#10 -6396312#0 -6507818#0 -6501822#0 -6501822#0.165 6354836#0 6354836#0.6 6354836#1 6354836#1.40 6354836#3 -256997441#7 -256997441#7.46 -6351349#4 -6351349#4.8 642753174 -6384264 -295783215#1 14374224#0 14374224#0.36 14374224#0.80 14374224#0.83 14374224#4 14374224#4.44 14374224#4.54 14374224#4.84 14374224#4.122 -6414318#4 -157167355#0"/>
</vehicle>
<vehicle id = "veh11" type= "veh_passenger" depart="7210" >
<route edges =" -813722269#3 -813722269#3.7 -813722269#3.48 -813722269#3.84 -813722269#3.86 569505974#0 569505974#0.10 569505974#0.37 816616073#0 816616073#0.78 -6343949#2 -6343949#2.11 -6343949#2.90 816616072#4 816616072#4.7 816616072#4.62 816616072#4.121 6430729#0 6430729#0.7 6430729#0.86 6430729#3 6430729#3.9 6430729#3.48 6430729#6 6430729#6.47 6430729#6.48 6430729#9 6430729#9.48 8071898#2 6343949#8 6343949#8.52 65588093#2 65588093#3 292812445#3 292812445#3.49 6464042#0 6464042#0.76 6463017#2 6463017#2.44 6463017#2.48 -6513783#1 -6513783#1.10 -6513783#0 292812445#7 292812445#7.46 -620762224#1 -620762224#0 -620762218#5 -620762218#5.44 -620762218#5.106 -525497324#2 -525497324#1 -525497324#0 525497323#0 525497323#0.50 -6481166#12 -293775902#14 -293775902#14.49 -293775902#14.96 -293775902#11 -293775902#11.6 -293775902#11.48 -293775902#11.91 -6440371#8 -6440371#8.7 -6440371#8.122 -6440371#8.124 -6440371#8.125 -6464138#7 -6464138#7.10 -6464138#7.47 -6464138#7.91 -6464138#3 -6464138#3.8 -6464138#3.47 -6464138#3.93 -893866059#2 -893866059#2.7 -893866059#2.120 -893866059#2.121 -893866056#3 -893866056#3.9 -893866056#3.34 -893866056#3.90 -353690157#4 -353690157#4.8 -353690157#4.23 -353690157#4.48 -353690157#4.77 -353690157#4.90 -243338979#17 -243338979#17.7 -243338979#17.60 -243338979#17.109 -243338979#17.118 -243338979#17.120 486864438#2 486864438#2.6 486864438#2.88 353690152#0 353690152#0.9 353690152#0.90 460419029#0 460419029#0.7 460419029#0.51 460419029#0.53 460419029#0.89 -22917111#10 -22917111#10.9 -22917111#10.32 -22917111#10.71 -22917111#10.74 -22917111#10.76 -22917111#10.93 -22917111#10.155 -22917111#10.196 -353690160#2 -353690160#2.8 -353690160#2.90 -486844942#6 -486844942#6.9 -486844942#6.25 -486844942#6.67 -486844942#6.92 -6476327#15 -6476327#15.10 -6476327#15.38 -6476327#15.65 -6476327#11 -6476327#10 -6476327#10.8 -6476327#10.86 893868549#12 893868549#12.7 893868549#12.90 -893868550#2 -893868550#2.7 -893868550#2.86 901477545#0 901477545#0.8 901477545#0.89 901477545#4 901477545#4.7 901477545#4.69 6440364#4 6440364#4.6 6440364#4.86 901474739#7 901474739#7.8 901474739#7.82 6507809#0 6507809#0.7 6507809#0.88 6481166#5 6481166#6 6481166#7 6481166#7.43 486874837#1 6447971#10 6447971#10.101 243339793#0 243339793#0.48 -460419011#0 -460419011#0.11 -460419014 -460419014.67 -460419007#0 -460419007#0.17 -460419007#0.46 -6515975#8 -6515975#7 -6515975#6 -6507809#4 -6447971#4 -6447971#3 -6447971#3.29 -6447971#3.37 -6447971#3.61 256996978#0 256996978#0.7 256996978#0.68 256996973#0 256996973#0.33 256996973#0.45 256996973#0.49 256996975#0 256996975#0.50 256996975#0.62 256996975#0.65 256996975#0.91 256996976#0 256996976#0.11 256996976#0.20 256996976#0.46 256996976#0.79 256996976#3 256996976#3.7 256996976#3.76 6449462#0 6449462#0.9 6449462#0.46 6449462#3 6449462#3.7 6449462#3.50 6449462#3.60 6449462#3.72 6449462#3.87 795669782#0 795669782#0.54 6414318#1 6414318#1.86 6497081#8 -6371720#2 -6371720#1 -6371720#1.81 460418987#2 -6371704#2 -6371704#2.42 -460418992#2 -460418992#2.50 -460418992#2.92 460418994#0 460418994#0.9 460418994#0.44 460418994#0.71 460418978#0 460418978#0.8 460418978#0.76 795846818#2 795846818#2.7 795846818#2.14 795846818#2.102 22917670#10 22917670#10.5 22917670#10.34 481291010#3 481291010#3.6 481291010#3.100 369455641#1 369455641#1.28 369455641#1.78 512126022#0 512126022#0.11 512126022#0.46 -185483738#3 -185483738#3.11 -185483738#3.19 -185483738#2 -185483738#2.93 -6371720#5 -6371720#5.41 157167355#0"/>
</vehicle>
<vehicle id = "veh12" type= "veh_passenger" depart="10815" >
<route edges =" -813722269#3 -813722269#3.7 -813722269#3.48 -813722269#3.84 -813722269#3.86 620762213#0 620762213#0.9 620762213#0.88 620762212#0 620762212#0.8 620762212#0.52 6343949#6 6343949#7 6343949#8 6343949#8.52 -65588093#1 -65588093#1.103 -65588093#1.123 -65588093#1.126 -65588093#1.130 739843348#0 739843348#0.4 739843348#0.9 620762218#0 620762218#0.55 620762218#0.66 620762218#0.68 620762218#0.81 -6440348#7 -6440348#7.9 243349944#0 243349944#0.4 243349944#0.20 243349944#0.49 243349944#4 243349944#4.53 243349944#6 243349944#7 243349944#8 243349944#9 243349944#10 243349944#10.7 243349944#10.84 243349944#13 243349944#13.47 243349944#13.51 -22917113#5 -22917113#4 256994205#1 256994205#2 256994205#2.24 256994205#2.72 256994205#3 428246847#0 428246847#0.8 428246847#0.22 6386110#0 6386110#0.16 6386110#0.25 6386110#0.55 -243349338#6 -243349338#6.14"/>
</vehicle>
<vehicle id = "veh13" type= "veh_passenger" depart="10815" >
<route edges =" -816616074#1 -816616074#1.10 -816616074#1.14 -816616074#1.119 428341734#4 428341734#4.8 428246439#0 428246439#0.14 428246438#0 428246438#0.8 428246440#0 428246440#0.62 800744529#0 800744529#0.7 800744529#0.52 800744529#0.89 -349901821 349901822#0 349901822#0.9 96029553#0 96029553#0.9 96029553#0.15 96029553#0.59 -893866066#2 -893866066#2.7 -893866066#2.122 -353690150#2 -353690150#2.8 -353690150#2.144 293775902#0 293775902#0.7 293775902#0.52 293775902#0.90 293775902#4 293775902#4.6 293775902#4.49 293775902#4.88 293775902#8 293775902#8.6 293775902#8.49 293775902#8.91 -6512920#7 -6512920#7.4 -6512920#7.122 -6512920#7.124 6464138#12 6464138#12.51 6464138#14 -481291488#1 6464126#0 6464126#0.46 6464126#0.49 6464126#3 6464126#3.49 -801995081#0 243339793#4 -460419028#4 -460419028#3 -460419028#2 -460419028#2.56 -460419028#2.72 -460419028#2.102 -460419028#2.140 396055524#0 396055524#0.9 396055524#0.30 396055524#0.54 396055524#0.65 256994205#0 256994205#0.67 -22917113#3 243349338#2 243349338#3 243349338#3.49 243349338#5"/>
</vehicle>
<vehicle id = "veh14" type= "veh_passenger" depart="10815" >
<route edges =" 817434294 817434294.10 817434294.36 817434294.44 817434294.63 817434294.119 6343949#0 6343949#0.7 6343949#0.86 -816616073#1 -816616073#1.7 -569505974#1 -569505974#1.6 -569505974#1.33 -569505976#2 -569505976#2.9 -569505976#2.88 -569505976#2.115 -569505976#2.119 -569505978#1 -569505978#1.10 -569505979 -569505979.32 -569505979.79 -395714916#1 -395714916#1.12 -568043367 -568043367.41 -568043367.79 -293775903#2 -293775903#2.10 -293775903#2.37 -293775903#2.89 -293775903#2.118 893866060#0 893866060#0.10 893866060#0.69 893866060#0.91 893866060#4 893866060#4.6 893866060#4.48 893866060#4.89 893866060#8 893866060#8.7 893866060#8.65 893866060#8.89 6464138#0 6464138#0.7 6464138#0.53 6464138#0.92 6464138#4 6464138#4.6 6464138#4.51 6464138#4.88 -6440371#5 -6440371#5.4 -6440371#5.6 -6440371#5.7 -6440371#5.119 -6440371#5.121 -6440371#2 -6440371#2.9 -6440371#2.11 -6440371#2.121 -6440371#2.122 460419029#9 460419029#9.7 460419029#9.45 486874837#0 486874837#1 -6447971#9 6425689#0 6425689#0.48 460419007#1 460419007#1.26 460419013#0 460419013#0.51 481291014#0 481291014#0.53 460419024#0 460419024#0.9 460419024#0.19 460419024#0.34 460419024#0.53 460419024#0.102 460419024#5 460419024#5.50 460419024#5.63 460419024#5.69 -621319697#3 -621319697#3.10 -621319697#3.29 -621319697#3.34 -621319697#3.38 -460419008#1 -460419008#1.44 -6515975#8 -6463532#1 -6463532#1.50 -6447971#6 -6467507#3 -6481166#5 -6481166#4 169917351#4 169917351#4.51 -6447971#3 -6447971#3.29 -6447971#3.37 -6447971#3.61 256996978#0 256996978#0.7 256996978#0.68 6515975#0 6515975#0.8 6515975#0.67 6515975#0.104 6515975#4 6515975#4.43 6507809#5 6507809#5.51 -6380913#4 169917351#9 169917351#9.48 169917351#9.87 -6516509#14 -6516509#14.5 -6516509#14.58 -6516509#14.86 6507809#10 6507809#10.8 6507809#10.91 6507809#13 6507809#13.9 6507809#13.77 6452520#6 6452520#6.7 185485127#0 6523501#5 6523501#5.201 926425191#0 926425191#0.5 -6494970#6 -6494970#6.6 -6494970#4 -6494970#4.172 169917351#25 169917351#25.7 169917351#25.72 -336908264#2 -336908264#2.145 185485127#4 185485127#4.10 185485127#6 185485127#7 185485127#7.45 185485127#7.50 -6501822#2 -6507813#3 -6507813#3.42 -6507813#3.51 -6472293#1 -6472293#1.180 -6472293#1.202 -256996977#5 -256996977#5.28 -256996977#5.42 -256996977#5.43 6489809#0 6489809#0.40 -6415147#5 428247193#3 428247193#3.27 486632638#0 486632638#0.14 486632638#0.27 -460421482#10 -460421482#10.13 -460421482#10.46 -460421482#10.56 -460421482#10.76 6358721#0 6358721#0.9 -6415147#3 -6415147#2 6449462#3 6449462#3.7 6449462#3.50 6449462#3.60 6449462#3.72 6449462#3.87 795669782#0 795669782#0.54 -6414318#0 -6414318#0.76 -6414318#0.81 460418987#0 460418987#0.4 460418987#0.8 460418987#1 6371720#0 6371720#0.7 6371720#2 6371720#3 157167355#0"/>
</vehicle>
<vehicle id = "veh15" type= "veh_passenger" depart="10815" >
<route edges =" -814326475#2 -814326475#2.9 -814326475#2.24 -814326475#2.41 -814326475#2.70 -814326475#2.91 -723013181#2 -723013181#2.9 -723013181#2.18 -723013181#2.38 -723013181#0 -332601014#3 -332601014#3.31 -332601014#3.36 -332601014#3.42 -428246441#2 -428246441#2.2 -428246441#2.10 -723013876#1 -723013876#1.12 -723013876#1.18 -723013877 -6415868#5 -6461453#5 -6461453#5.36 -6461453#5.50 -6461453#5.66 -6461453#5.116 6447455#0 6447455#0.5 6447455#0.10 6447455#2 6447455#2.50 6447455#2.88 6447455#2.94 607690679#0 607690679#0.3 607690679#0.8 607690679#0.15 607690679#0.94 -6456052#1 -6456052#1.10 -6456052#1.62 -607691082#1 -607691082#0 -6475815#3 -6475815#3.2 -6475815#3.17 -6475815#3.46 -428089348#3 -428089348#3.15 -428089348#3.21 -428089348#3.28 -353690151#5 -353690151#5.11 -353690151#5.12 -353690151#5.26 -353690151#5.83 -353690151#5.102 -353690151#2 -353690151#2.9 -353690151#2.22 -353690151#2.24 -353690151#2.39 -353690151#2.72 -353690151#2.92 -433500388#1 -433500388#1.11 -433500388#1.46 -433500388#1.73 -433500388#1.113 -433500388#1.115 -369877024#7 -369877024#7.3 -369877024#7.5 -369877024#7.8 -369877024#7.10 -369877024#7.16 -369877024#7.21 -369877024#7.102 -749622503#2 -749622503#2.9 -749622503#2.29 -749622503#2.64 -749622503#2.84 -369877039 -369877039.36 -369877039.55 -428088903#1 -428088903#1.15 428231560#0 428231560#0.10 338073582#0 338073582#0.20 -6502980#13 -6502980#13.10 -6502980#13.20 -6502980#13.36 -6502980#13.49 -6502980#13.55 -6502980#13.82 -263669002#2 -263669002#2.5 -263669002#2.46 -263669002#2.76 -263669002#2.86 465971498#0 465971498#0.9 465971498#0.59 465971498#0.83 465971498#0.86 465971498#0.88 465971498#0.90 465971498#0.91 6514305#0 6514305#0.3 6514305#0.4 6514305#0.9 6514305#0.14 6514305#0.34 6514305#0.54 353690159#1 353690159#1.50 353690159#1.92 -6343878#11 -6343878#11.8 -6343878#11.104 -6343878#8 -6343878#8.7 -6343878#8.85 -347094714#3 -347094714#3.9 -347094714#3.49 -347094714#3.92 6467490#0 6467490#0.7 6467490#0.49 6467490#0.78 -401497115 -401497115.113 -401497115.170 -401497115.214 -428233435 -460425668 -460425668.5 425646007#0 425646007#0.10 425646007#0.17 425646007#0.20 425646007#0.22 425646007#0.27 425646003#0 425646003#0.15 6476922#0 6476922#0.13 6476922#0.24 6476922#0.37 6476922#0.60 6476922#0.67 436480244#0 436480244#0.2 436480244#0.5 436480244#0.11 6435230#0 6435230#0.33 6435230#0.60 6435230#3 6435230#3.58 893868549#7 893868549#7.9 893868549#7.13 893868549#7.94 893868549#7.109 893868549#7.125 893868549#7.184 6476327#8 6476327#8.6 6476327#8.84 893868547#0 893868547#0.8 893868547#0.91 876005346#0 876005346#0.6 876005346#0.88 876005346#3 -22917110#5 -22917110#5.7 -22917110#5.84 901474739#3 901474739#3.6 901474739#3.41 901474739#3.71 901474739#7 901474739#7.8 901474739#7.82 -901477546#2 -901477546#2.6 -901477546#2.45 -901477546#2.87 -901474740#3 -901474740#3.7 -901474740#3.53 -901474740#3.61 -901474740#3.102 256996974#11 256996974#11.6 256996974#11.33 256996974#11.65 256996972 256996972.16 256996972.70 881403606#0 881403606#0.12 881403606#0.42 881403606#0.83 881403606#0.85 881403606#4 881403606#4.53 881403608#2 881403608#2.2 881403608#2.5 881403608#2.8 881403608#2.11 881403608#3 881403608#3.2 881403608#3.5 881403608#3.8 881403608#3.11 976099002#0 976099002#0.34 976099002#0.40 976099002#0.64 965874292#7 965874292#7.8 965874292#7.41 965874292#10 965874292#10.35 965874292#12 965874292#12.8 965874292#12.69 158123767#0 158123767#0.10 158123767#0.11 158123767#0.50 158123767#0.74 158123767#0.86 158123767#0.115 158123767#0.122 158123767#0.134 158123767#0.139 158123767#0.166 795669781 795669781.52 795669781.56 6497081#6 6497081#6.44 6414318#3 -157167355#0"/>
</vehicle>
<vehicle id = "veh16" type= "veh_passenger" depart="14420" >
<route edges =" -813722269#3 -813722269#3.7 -813722269#3.48 -813722269#3.84 -813722269#3.86 569505974#0 569505974#0.10 569505974#0.37 816616073#0 816616073#0.78 6343949#3 6343949#3.9 6343949#3.49 6343949#6 -65588100#1 -65588100#1.65 -826314455#3 -826314455#3.64 -826314455#3.71 -826314455#3.76 -826314455#3.90 -826314455#3.118 825336588#0 825336588#0.7 349901822#2 349901822#2.21 332092195#0 332092195#0.9 332092195#0.74 460423532#0 460423532#0.2 620762218#0 620762218#0.55 620762218#0.66 620762218#0.68 620762218#0.81 620762218#3 620762218#3.7 620762218#5 620762218#5.18 620762218#5.80 620762224#0 -6430729#18 -6430729#18.53 -6430729#16 -6430729#16.50 -6430729#14 -6430729#14.49 -6430729#12 -6430729#12.49 -8071898#1 -8071898#1.60 -8071898#1.73 -8071898#1.89 -8071898#1.91 -171739207#7 -171739207#7.16 -171739207#7.38 -171739207#7.41 -171739207#7.44 -171739207#7.46 -171739207#7.49 -171739207#7.51 -171739207#7.74 -171739207#7.76 -171739207#7.78 -171739207#7.82 -171739207#7.85 -171739207#7.89 6403874#0 6403874#1 6403874#1.38 171739214#20 171739214#21 171739214#21.8 171739214#21.28 171739214#21.32 -6457203#0 6384359#0 6384359#0.22 6384359#0.45 6384359#0.50 6384359#4 6384359#4.13 6384359#4.31 6384359#4.51 6384359#6 6384359#6.48 -6513783#4 -6513783#4.21 -6513783#4.23 -6513783#4.43 -6513783#4.80 -6463017#4 -6463017#4.49 -6463017#4.52 -6463017#1 -6463017#1.51 -6505136#4 -6505136#4.10 -6505136#4.42 -6505136#4.55 -6505136#4.101 -6505136#4.110 292812445#3 292812445#3.49 292812445#5 292812445#5.45 292812445#7 292812445#7.46 6381494#0 6381494#1 6463017#6 6463017#6.48 6386837#1 6386837#2 6384359#12 6384359#12.14 6384359#12.24 6384359#12.93 -6444677 481291015#0 481291015#0.20 481291015#0.59 -343521145#3 -343521145#3.32 -343521145#3.66 -343521145#3.101 -343521145#3.142 -343521145#3.155 337739267#0 337818462 337818462.3 337818462.6 337739271#1 337739271#1.6 337739269#0 337739269#1 337739269#1.30 337739269#3 337739269#3.69 396055523#5 396055523#5.8 396055523#5.42 243349945#0 243349945#0.6 243349945#0.83 6360256#10 6360256#10.7 6360256#10.57 6360256#10.71 6360256#10.113 6360256#10.122 6360256#10.124 6360256#14 6360256#14.7 6360256#14.133 6486416#0 6486416#0.9 6486416#0.116 -854082601 -854082601.46 -854082601.87 -169730574#1 -169730574#1.5 -169730574#1.6 -169730574#1.24 -460399791#2 -460399791#2.15 -460399791#2.17 -460399791#2.82 -460399791#2.105 465799093#0 465799093#0.8 465799093#0.46 465799093#0.91 65588097#0 65588097#0.9 65588097#2 65588097#2.69 -6464374 6460085#4 6460085#4.35 -61151096 6383185#6 6383185#7 476409332#2 476409332#2.43 476409332#4 65588097#7 65588097#7.42 65588097#9 6523125#1 6523125#2 -170683288#5 -170683288#5.41 -170683288#3 -170683288#3.39 -170683288#3.69 -170683288#3.76 -476409332#8 -476409332#7 -6495798#2 170683231#3 -6448612#7 -6448612#7.6 -6448612#5 -6448612#5.30 -428315592#2 -428315592#2.25 -428315592#2.67 -428315592#2.108 6463035#0 6463035#0.14 6463035#0.38 -6448612#1 -6448612#1.133 -22917113#10 -22917113#10.7 -22917113#10.129 -22917113#10.132 -22917113#7 -22917113#7.10 -22917113#7.19 -22917113#6 243349944#15 243349944#15.48 243349944#17 243349944#17.50 -6494975#7 6447445#9 6447445#9.49 -22760521#2 -22760521#2.81 -22760521#2.121 428246847#0 428246847#0.8 428246847#0.22 6386110#0 6386110#0.16 6386110#0.25 6386110#0.55 -243349338#6 -243349338#6.14"/>
</vehicle>
<vehicle id = "veh17" type= "veh_passenger" depart="14420" >
<route edges =" -816616074#1 -816616074#1.10 -816616074#1.14 -816616074#1.119 428341734#4 428341734#4.8 428246439#0 428246439#0.14 428246438#0 428246438#0.8 428246440#0 428246440#0.62 -800744528#1 -800744528#1.8 -800744528#1.16 -800744528#1.37 -800744528#1.72 826314456#0 826314456#0.9 826314456#0.50 826314456#0.96 826314456#0.103 349901822#0 349901822#0.9 96029553#0 96029553#0.9 96029553#0.15 96029553#0.59 -893866066#2 -893866066#2.7 -893866066#2.122 32135548#0 32135548#0.6 32135548#0.48 32135548#0.53 32135548#0.64 32135548#0.89 32135548#0.90 -22917111#22 -22917111#22.9 -22917111#22.144 293775902#4 293775902#4.6 293775902#4.49 293775902#4.88 6440371#9 6440371#9.7 6440371#9.139 32135548#9 32135548#9.7 32135548#9.47 32135548#9.63 32135548#9.78 525497323#0 525497323#0.50 525497323#2 525497323#2.81 40416132#0 40416132#0.19 40416132#1 40416132#1.90 -801995081#2 -801995081#2.109 6464126#5 6464126#6 6464126#7 6464126#7.50 -22917113#1 -22917113#1.55 -22917112 481291012#0 481291012#0.24 481291012#0.32 -185485132#1 -185485132#1.196 926425191#0 926425191#0.5 6494970#7 6494975#0 6494975#0.105 6494975#1 6494975#1.9 6494975#2 243349338#5"/>
</vehicle>
<vehicle id = "veh18" type= "veh_passenger" depart="14420" >
<route edges =" 817434294 817434294.10 817434294.36 817434294.44 817434294.63 817434294.119 816616072#4 816616072#4.7 816616072#4.62 816616072#4.121 816616072#8 816616072#8.6 816616072#8.121 6346526#0 6346526#0.6 6346526#0.99 6346526#0.121 -337668916#3 -337668916#3.10 -337668916#3.49 -337668916#3.92 6400834#0 6400834#0.8 6400834#0.121 440887830#0 440887830#0.8 644748880#0 644748880#0.9 644748880#0.50 644748880#0.55 428098988#0 428098988#0.8 428098988#0.9 428098988#0.54 428098988#0.75 428246434#0 428246434#0.18 428246435#0 428246435#0.10 428246433 428246433.72 428246432#0 428246432#0.13 171739214#8 8071890#0 8071890#0.56 158882505#0 158882505#0.42 6368665#2 158882517#1 -6346524#1 158882505#3 -6411908#2 -6411908#2.56 171739214#14 160552467#6 160552467#6.15 160552467#6.20 160552467#6.50 160552467#8 160552467#9 158882511#5 158882511#5.46 158882511#5.58 158882511#8 -6469837#3 -158882517#5 -6403883#2 158882505#7 -6469837#1 -6469837#1.51 -171739214#20 -6403874#2 -6403874#2.90 -6403874#0 171739207#4 171739207#4.40 171739207#4.43 171739207#4.47 171739207#4.50 171739207#4.52 171739207#4.54 171739207#4.77 171739207#4.80 171739207#4.82 171739207#4.85 171739207#4.87 171739207#4.90 171739207#4.113 8071898#0 8071898#0.8 8071898#0.10 8071898#0.26 8071898#0.40 -6430729#10 -6430729#10.63 -6430729#8 -6430729#8.48 -6430729#8.49 -620762212#3 -620762212#2 -620762212#2.76 -620762212#2.120 -800744530#5 -800744530#5.9 -800744530#5.19 -800744530#5.73 -800744530#5.84 -800744530#5.118 -428246440#1 -428246440#1.7 -428246438#1 -428246438#1.17 -569505978#1 -569505978#1.10 -569505979 -569505979.32 -569505979.79 337673338#0 337673338#0.14 185882764 185882764.13 185882764.14 185882765 185882765.16 185882765.26 185882765.30 185882765.31 -243338979#28 -243338979#28.13 -243338979#28.49 -243338979#28.142 -243338979#28.143 893866065#3 893866065#3.6 893866065#3.48 893866065#3.88 893866065#7 893866065#7.7 893866065#7.48 893866065#7.90 -893866064#2 -893866064#2.7 -893866064#2.122 6464138#0 6464138#0.7 6464138#0.53 6464138#0.92 6464138#4 6464138#4.6 6464138#4.51 6464138#4.88 6464138#8 6464138#8.7 6464138#8.49 6464138#8.88 6464138#12 6464138#12.51 6464138#14 -481291488#1 -481291488#0 -481291488#0.69 -481291488#0.82 -6447971#10 -6447971#10.11 486874837#2 486874837#2.47 460419013#0 460419013#0.51 -6380913#14 -6380913#13 -6380913#12 -6380913#11 -6380913#11.53 -6380913#7 -6380913#7.22 -6380913#5 6507809#7 6507809#7.46 6507809#7.87 6516509#11 6516509#11.6 6516509#11.34 6516509#11.86 6516509#15 6516509#15.7 6516509#15.35 6516509#15.48 6516509#15.68 6516509#15.70 6516509#15.79 6516509#15.84 6516509#15.98 6516509#15.101 256996976#0 256996976#0.11 256996976#0.20 256996976#0.46 256996976#0.79 6487445#0 6487445#0.8 6415147#0 6415147#0.61 6449462#3 6449462#3.7 6449462#3.50 6449462#3.60 6449462#3.72 6449462#3.87 795669782#0 795669782#0.54 6414318#1 6414318#1.86 6497081#8 6371720#3 157167355#0"/>
</vehicle>
<vehicle id = "veh19" type= "veh_passenger" depart="14420" >
<route edges =" -814326475#2 -814326475#2.9 -814326475#2.24 -814326475#2.41 -814326475#2.70 -814326475#2.91 -6456052#5 -6456052#5.10 -6456052#5.36 -6456052#5.120 -6456052#1 -6456052#1.10 -6456052#1.62 -337673342#0 6343890#0 6343890#0.54 6343890#0.56 6343890#0.58 6343890#0.59 6343890#0.61 -6475815#6 -6475815#6.16 -6475815#4 -6475815#3 -6475815#3.2 -6475815#3.17 -6475815#3.46 -428089348#3 -428089348#3.15 -428089348#3.21 -428089348#3.28 332223491#0 332223491#0.12 6438604#0 6438604#0.3 6438604#0.6 6438604#0.8 6438604#0.10 6438604#0.11 6438604#0.13 6438604#0.44 6438604#0.60 -22927969#14 -22927969#14.8 -22927969#14.47 -22927969#14.89 -293753570#5 -293753570#5.6 -293753570#5.37 -293753570#5.47 -293753570#5.60 -293753570#5.82 -293753570#2 -293753570#2.9 -293753570#2.83 293753571#0 293753571#0.5 293753571#0.20 293753571#0.24 -353690151#2 -353690151#2.9 -353690151#2.22 -353690151#2.24 -353690151#2.39 -353690151#2.72 -353690151#2.92 -433500388#1 -433500388#1.11 -433500388#1.46 -433500388#1.73 -433500388#1.113 -433500388#1.115 -428088900#1 -428088900#1.10 -428088894#1 -428088894#1.25 -428088883#1 -428088883#1.15 -428088897 -428088888 -737711647 -332223490#1 -332223490#1.19 6514305#0 6514305#0.3 6514305#0.4 6514305#0.9 6514305#0.14 6514305#0.34 6514305#0.54 -6456044#8 -6456044#8.8 -6456044#8.104 -6456044#5 -6456044#5.7 -6456044#5.86 6467490#0 6467490#0.7 6467490#0.49 6467490#0.78 -401497115 -401497115.113 -401497115.170 -401497115.214 -428233435 -460425668 -460425668.5 -6457806#2 -6457806#2.21 -6457806#2.25 -6457806#2.30 6476922#0 6476922#0.13 6476922#0.24 6476922#0.37 6476922#0.60 6476922#0.67 6413383#0 6413383#0.1 6413383#0.3 6413383#0.6 6413383#0.18 6413383#0.26 6413383#0.47 428233432#0 428233432#0.11 428233432#0.22 -739874554#2 -739874554#2.15 -739874554#2.40 -739874554#2.60 -739874554#2.67 622519661 622519661.8 739874553#0 739874553#0.66 739874553#0.80 739874553#0.88 333370569#0 333370569#0.6 333370569#0.13 333370569#0.37 333370569#0.43 333370569#0.66 333370569#0.94 333370569#0.155 333370569#0.178 333370566#0 333370566#0.32 332223494#0 332223494#0.18 332223494#0.35 332223494#0.144 332223494#0.171 6506833#15 6506833#15.8 6506833#15.10 6506833#15.35 6506833#18 6506833#18.45 6506833#20 6506833#20.8 6506833#20.47 6506833#20.85 -263712957#12 -263712957#12.8 -263712957#12.77 792010743#2 792010743#2.11 792010743#2.16 6371699#0 6371699#0.9 6371699#2 6371699#2.33 6371699#2.42 6371699#2.187 844067889#4 844067889#4.8 844067889#4.67 844067889#4.77 844067889#4.80 263721997#0 263721997#0.6 263721997#0.7 263721997#0.8 263721997#0.44 263721997#0.76 263721997#0.88 6405732#0 6405732#0.8 6405732#0.12 6405732#0.162 6405732#0.169 22917669#5 22917669#5.7 22917669#5.20 22917669#5.22 22917669#5.27 22917669#5.46 22917669#5.62 22917669#5.86 22917669#11 22917669#11.7 -6383358#2 -6383358#2.6 -6383358#2.142 -8044210#5 -8044210#5.6 -8044210#5.33 -8044210#5.40 -8044210#5.46 -8044210#5.72 -8044210#5.73 -6388742#18 -6388742#18.5 -6388742#18.14 -6388742#18.22 -6388742#18.33 -6388742#18.42 -6388742#18.52 -6388742#18.64 -6388742#18.73 -6388742#15 -6388742#15.8 -6388742#15.46 -6388742#15.84 263712958#0 263712958#0.8 263712958#0.45 263712958#0.101 263712958#0.114 263712958#0.117 263712958#0.119 6445479#0 6445479#0.4 6445479#0.8 6445479#0.186 965874292#10 965874292#10.35 965874292#12 965874292#12.8 965874292#12.69 158123767#0 158123767#0.10 158123767#0.11 158123767#0.50 158123767#0.74 158123767#0.86 158123767#0.115 158123767#0.122 158123767#0.134 158123767#0.139 158123767#0.166 795669781 795669781.52 795669781.56 6497081#6 6497081#6.44 6414318#3 -157167355#0"/>
</vehicle>
<vehicle id = "veh20" type= "veh_passenger" depart="18025" >
<route edges =" -813722269#3 -813722269#3.7 -813722269#3.48 -813722269#3.84 -813722269#3.86 620762213#0 620762213#0.9 620762213#0.88 620762212#0 620762212#0.8 620762212#0.52 6343949#6 6343949#7 8071898#3 179551719 179551719.37 179551719.46 179551719.51 179551719.88 179551719.93 179551719.97 739843348#0 739843348#0.4 739843348#0.9 -460423532#1 -460423532#1.17 -22917111#30 -22917111#30.9 -22917111#30.50 -22917111#30.96 8071900#4 8071900#4.7 8071900#4.49 8071900#4.88 8071900#8 8071900#8.6 8071900#8.7 8071900#8.49 8071900#8.53 525497324#1 525497324#2 -620762218#4 -620762218#4.108 6440348#8 6440348#8.12 6440348#8.47 6440348#8.88 6440348#8.91 6440348#11 6440348#11.4 6440348#11.7 6440348#11.62 6440348#11.73 6440348#14 292812445#5 292812445#5.45 -525497324#8 6430729#17 6430729#17.51 -620762224#0 -66558981#7 -66558981#7.65 -66558981#7.83 -66558981#7.105 -66558981#7.123 243349944#6 243349944#7 460419011#4 -337739269#0 6343960 6343960.10 6343960.16 6343960.20 6343960.24 343521145#1 343521145#1.20 343521145#1.33 343521145#1.74 343521145#1.108 343521145#1.143 737709039#0 737709039#0.8 737709039#0.14 6383185#0 6383185#0.82 6383185#0.151 8071925#2 8071925#2.36 8071925#2.74 460399791#0 460399791#0.9 460399791#0.31 460399791#0.97 460399791#0.99 -537678339#1 -537678339#1.11 338701493#0 338701493#0.9 396055523#1 396055523#1.42 396055523#1.177 396055523#1.183 -337739269#4 -337739269#4.9 -801995081#6 -801995081#6.9 243349944#9 396055523#9 396055523#9.6 396055523#9.20 396055523#9.54 6447445#0 6447445#0.8 6447445#0.87 6360256#6 6360256#6.122 243349944#13 243349944#13.47 243349944#13.51 243349944#15 243349944#15.48 185485132#10 185485132#11 185485132#11.115 185485132#12 185485132#12.17 6495801#0 6495801#1 170683665#0 170683665#0.4 170683665#0.48 170683665#0.50 6356676#2 6356676#2.67 6356676#2.82 6356676#2.92 6356671#0 6356671#0.13 6356671#0.39 428315591#1 428315591#2 428315591#2.6 428315591#2.15 428315591#2.25 428315591#2.59 428315591#2.76 912599280 337818332#0 337818332#0.7 337818332#0.70 -19000995#2 -19000995#2.7 -19000995#2.29 6414237#0 6414237#0.11 -6353867#1 -40416130#1 -40416130#0 -279467136#3 -279467136#3.77 -279467136#3.101 170683665#5 170683665#5.50 -6349133#1 -6463035#9 -6463035#9.48 -6463035#7 -6356676#0 -6494975#10 -6494975#10.123 -6494975#10.131 805658294#2 805658294#2.39 805658294#4 805658294#4.48 -6472289#3 -243349945#14 -243349945#14.50 -243349942#0 -243349942#0.28 243349944#21 243349944#21.48 -6472289#1 -6447445#11 -6447445#10 -6447445#10.48 -6494975#6 -6494975#6.81 256994205#3 428246847#0 428246847#0.8 428246847#0.22 6386110#0 6386110#0.16 6386110#0.25 6386110#0.55 -243349338#6 -243349338#6.14"/>
</vehicle>
<vehicle id = "veh21" type= "veh_passenger" depart="18025" >
<route edges =" -816616074#1 -816616074#1.10 -816616074#1.14 -816616074#1.119 428341734#4 428341734#4.8 428246439#0 428246439#0.14 428246438#0 428246438#0.8 428246440#0 428246440#0.62 800744529#0 800744529#0.7 800744529#0.52 800744529#0.89 -349901821 -6476313#2 -6476313#2.11 -6476313#2.29 -6476313#2.98 -6476313#2.99 -6476313#2.103 -6476313#2.107 164418944#4 164418944#4.7 164418944#4.8 164418944#4.29 164418944#4.51 164418944#4.95 32135548#0 32135548#0.6 32135548#0.48 32135548#0.53 32135548#0.64 32135548#0.89 32135548#0.90 32135548#5 32135548#5.7 32135548#5.49 32135548#5.88 32135548#9 32135548#9.7 32135548#9.47 32135548#9.63 32135548#9.78 525497323#0 525497323#0.50 525497323#2 525497323#2.81 40416132#0 40416132#0.19 40416132#1 40416132#1.90 -801995081#2 -801995081#2.109 -801995081#0 243339793#4 243339793#5 6360256#1 6360256#1.7 6360256#2 6360256#2.128 243349338#1 243349338#2 243349338#3 243349338#3.49 243349338#5"/>
</vehicle>
<vehicle id = "veh22" type= "veh_passenger" depart="18025" >
<route edges =" 817434294 817434294.10 817434294.36 817434294.44 817434294.63 817434294.119 6343949#0 6343949#0.7 6343949#0.86 -816616073#1 -816616073#1.7 -569505974#1 -569505974#1.6 -569505974#1.33 -569505976#2 -569505976#2.9 -569505976#2.88 -569505976#2.115 -569505976#2.119 -569505978#1 -569505978#1.10 -569505979 -569505979.32 -569505979.79 -395714916#1 -395714916#1.12 -568043367 -568043367.41 -568043367.79 893866065#0 893866065#0.10 893866065#0.66 893866065#0.92 -243338979#25 -243338979#25.8 -243338979#25.64 -243338979#25.77 -243338979#25.120 -243338979#20 -243338979#20.7 -243338979#20.121 -243338979#17 -243338979#17.7 -243338979#17.60 -243338979#17.109 -243338979#17.118 -243338979#17.120 -243338979#12 -243338979#12.10 -243338979#12.11 -243338979#12.62 436480246#0 436480246#0.12 436480246#0.32 436480246#0.41 436480246#0.55 6372377#0 6372377#0.23 -436480245#2 -436480245#2.30 -436480245#0 -436480245#0.21 -436480245#0.32 -436480245#0.59 -436480243#3 -436480243#3.10 -436480243#3.19 -436480243#3.38 -6435230#9 6376376#0 6376376#0.9 6376376#0.35 6376376#0.88 6376376#0.97 243338979#0 243338979#0.4 243338979#0.18 243338979#0.32 243338979#0.59 486844942#0 486844942#0.5 486844942#0.15 486844942#0.87 6476327#16 6476327#16.9 6476327#16.22 6476327#16.41 6476327#16.196 353690147#0 353690147#0.6 353690147#0.19 353690147#0.121 893866056#0 893866056#0.8 893866056#0.64 893866056#0.88 893866059#0 893866059#0.8 893866059#0.9 893866059#0.122 6464138#0 6464138#0.7 6464138#0.53 6464138#0.92 -22917111#16 -22917111#16.4 -22917111#16.5 -22917111#16.7 -22917111#16.120 -22917111#16.122 353690154#4 353690154#4.6 353690154#4.49 353690154#4.54 353690154#4.87 353690154#8 353690154#8.7 353690154#8.42 353690154#8.50 353690154#8.92 6512920#4 6512920#4.4 6512920#4.9 6512920#4.120 6512920#4.122 6512920#6 6512920#6.5 6512920#6.7 6512920#6.126 293775902#12 293775902#12.3 293775902#12.50 -6481166#11 -6481166#11.122 -6481166#11.125 -6481166#10 -6481166#10.6 -6481166#10.8 -6481166#10.120 353690154#15 353690154#15.50 243339793#0 243339793#0.48 -460419011#0 -460419011#0.11 -460419014 -460419014.67 -6425689#1 -6425689#1.49 -6447971#8 -263669069#0 -465971499#1 -465971499#1.88 -901419467#2 -901419467#2.9 -901419467#2.49 -901419467#2.54 -901419467#2.71 -901419467#2.91 -876005345#4 -876005345#4.10 -876005345#4.11 -876005345#4.20 -876005345#4.33 -876005345#4.199 901474741#0 901474741#0.6 901474741#0.85 901474741#0.87 -901474742#2 -901474742#2.5 -901474742#2.43 -901474742#2.83 -901474739#9 -901474739#9.9 -901474739#9.83 -6440364#6 -6440364#6.6 -6440364#6.86 901477545#7 901477545#7.5 901477545#7.83 169917351#0 169917351#0.8 169917351#0.53 169917351#0.88 6481166#4 6507809#3 -6447971#4 169917351#6 169917351#7 169917351#7.49 169917351#9 169917351#9.48 169917351#9.87 169917351#12 169917351#12.9 169917351#12.42 169917351#12.90 169917351#16 169917351#16.9 169917351#16.77 -6452520#2 -6452520#2.4 -6452520#2.101 460421482#0 460421482#0.8 460421482#0.73 6497081#0 6497081#0.8 6415147#3 6415147#4 -428247193#2 -428247193#2.56 -428247193#2.61 -428247193#2.96 -428247193#2.117 -428247193#2.121 -428247193#2.140 -428247193#2.154 -428247195 -428247195.5 -460421481#2 -460421481#2.8 -460421481#2.32 6497081#6 6497081#6.44 6497081#8 6371720#3 157167355#0"/>
</vehicle>
<vehicle id = "veh23" type= "veh_passenger" depart="18025" >
<route edges =" -814326475#2 -814326475#2.9 -814326475#2.24 -814326475#2.41 -814326475#2.70 -814326475#2.91 -723013181#2 -723013181#2.9 -723013181#2.18 -723013181#2.38 -723013181#0 -332601014#3 -332601014#3.31 -332601014#3.36 -332601014#3.42 -428246436#1 -428246436#1.13 -428246436#1.22 -428246436#1.37 -808907363#3 -808907363#3.25 -808907363#3.35 -808907363#3.48 -808907363#3.53 -808907363#3.61 -797328240#3 -797328240#3.13 -797328240#3.26 -797328240#3.65 -797328240#3.93 -797328240#3.115 -337673342#5 -337673342#5.3 -337673342#5.9 -337673342#5.13 -337673342#5.21 -337673342#5.35 -337673342#5.72 -607691082#1 6501701#2 6501701#2.50 6501701#2.60 -6475815#4 -6475815#3 -6475815#3.2 -6475815#3.17 -6475815#3.46 -428089348#3 -428089348#3.15 -428089348#3.21 -428089348#3.28 -428341218#2 -428341218#2.3 -428341218#2.9 -65588069#1 -65588069#1.13 -428089351#1 -428089351#1.16 293753570#3 293753570#3.10 293753570#3.31 293753570#3.45 293753570#3.54 293753570#3.85 22927969#11 22927969#11.6 22927969#11.48 22927969#11.87 6438604#5 6438604#5.9 738637223#0 738637223#0.15 -165042063#1 -165042063#1.3 -165042063#1.13 -165042063#1.15 165086027#0 165086027#0.10 165086027#0.12 912290518#0 912290518#0.2 912290518#0.6 912290518#0.72 912290518#0.95 6461453#0 6461453#0.2 6461453#0.5 6461453#0.6 6461453#0.8 6461453#0.111 6461453#3 6461453#3.11 6461453#3.61 6461453#3.77 6461453#3.91 6461453#6 6461453#6.38 6461453#6.80 6461453#6.92 6461453#6.95 6461453#11 6461453#11.55 6461453#11.69 6461453#11.115 6461453#11.128 -6430733#6 -6430733#6.16 -6430733#4 -6430733#4.10 -6511393#8 6343952#2 -6349123#7 -6415868#2 -6415868#2.13 -6415868#2.55 -6511393#6 -6511393#6.32 -6511393#6.48 -6511393#6.81 -6511393#6.115 723052304#0 -6349123#2 -6349123#2.11 -6349123#2.117 912290518#6 912290518#6.8 912290518#10 912290518#10.51 912290518#10.92 912290518#10.93 912290518#10.95 912290518#10.98 -749622503#30 -749622503#30.5 -749622503#30.9 -749622503#30.79 -749622503#30.85 -749622503#30.120 -749622503#25 -749622503#25.7 -749622503#25.85 -749622503#22 -749622503#22.9 -749622503#22.51 -749622503#22.84 22927969#3 22927969#3.7 22927969#3.49 22927969#3.90 -6511397#3 -6511397#3.9 -6511397#3.38 -6511397#3.82 -428227812#1 -428227812#1.9 -428227851#1 -428227851#1.5 -13726934#1 -13726934#1.5 -428227808 -428227847#1 -428227847#1.17 -428227803#1 -428227803#1.9 -428227860 -428227860.14 -428227828 -428227842 -428227822#1 -428227822#1.17 -428227833#1 -428227833#1.13 -428227838 -428227854#1 -428227854#1.5 -428227818 -428227865#1 -428227865#1.18 -428227899#1 -428227899#1.9 -428227850#1 -428227850#1.24 -428227893#1 -428227893#1.17 -169511255#15 -169511255#15.10 -169511255#15.84 263672156#0 263672156#0.7 263672156#0.17 263672156#0.91 263672156#3 263672156#3.7 263672156#3.57 263672156#3.86 369877031#0 369877031#0.10 369877031#0.31 369877031#0.46 369877031#0.88 -749622503#8 -749622503#8.7 -749622503#8.63 -749622503#8.83 -749622503#4 -749622503#4.84 -749622503#2 -749622503#2.9 -749622503#2.29 -749622503#2.64 -749622503#2.84 -6522514#4 -6522514#4.7 -6522514#4.36 -6522514#4.61 -6522514#4.66 -6522514#4.67 -6522514#4.73 -332223490#1 -332223490#1.19 -428088887#1 -428088887#1.12 -428088892 -428088886#1 -428088886#1.24 -428088886#1.35 -428088886#1.45 6463530#0 6463530#0.2 6463530#0.8 6463530#0.13 6463530#0.54 6463530#0.95 -6456044#5 -6456044#5.7 -6456044#5.86 6467490#0 6467490#0.7 6467490#0.49 6467490#0.78 -401497115 -401497115.113 -401497115.170 -401497115.214 -537677478#2 -537677478#2.10 -537677478#2.11 -537677478#2.28 -537677478#2.36 -6456046#3 -6456046#3.6 -6456046#3.36 -6456046#3.42 -6456046#3.49 -6456046#3.56 -6456046#3.62 -6456046#3.66 -6456046#3.71 -6456046#3.76 -6456046#3.92 -6456046#3.102 -6456046#3.109 -6456046#3.112 440890310 440890310.65 425646003#0 425646003#0.15 6465162#0 6465162#0.2 6465162#0.6 6465162#0.11 6465162#0.36 428233434 428233434.31 428233434.58 332223487#0 332223487#0.16 332223487#0.62 332223487#0.98 332223488 332223488.25 332223488.48 332223488.65 332223488.68 332223488.88 347092907#0 347092907#0.3 347092907#0.13 347092907#0.19 347092907#0.26 347092907#0.31 347092907#0.38 347092907#0.40 347092907#0.45 347092907#0.51 6405076#0 6405076#0.10 6405076#0.18 6405076#0.21 6405076#0.58 6405076#0.79 6405076#0.81 347092915#0 347092915#0.8 347092915#0.32 347092915#0.44 347092915#0.89 347092915#0.182 -6506833#10 -6506833#10.7 -6506833#10.19 -6506833#10.42 -6506833#10.46 -6506833#10.83 22917663#11 22917663#11.6 22917663#11.23 22917663#11.87 22917663#15 22917663#15.9 22917663#15.45 22917663#15.80 243338978#4 243338978#4.8 243338978#4.84 243338978#7 243338978#7.8 243338978#7.38 243338978#7.45 243338978#7.74 965874292#0 965874292#0.8 965874292#0.88 965874292#3 965874292#3.1 965874292#3.48 965874292#3.59 965874292#3.86 965874292#7 965874292#7.8 965874292#7.41 965874292#10 965874292#10.35 965874292#12 965874292#12.8 965874292#12.69 158123767#0 158123767#0.10 158123767#0.11 158123767#0.50 158123767#0.74 158123767#0.86 158123767#0.115 158123767#0.122 158123767#0.134 158123767#0.139 158123767#0.166 795669781 795669781.52 795669781.56 460421481#1 460421481#1.61 460421481#1.85 256997441#0 256997441#0.11 256997441#0.18 256997441#0.62 256997441#3 256997441#3.6 256997441#3.53 -6351349#4 -6351349#4.8 642753173 6354836#3 256997441#8 256997441#8.82 6335280 6335280.16 6335280.119 6335280.125 -661086630#4 -661086630#4.5 -661086630#4.8 -661086630#4.25 -661086630#4.63 6354836#5 6354836#5.54 6354836#7 6354836#7.92 -6467368#3 -6467368#2 -661086629#2 -661086629#2.7 -6371720#6 -185483738#0 -6414318#4 -157167355#0"/>
</vehicle>
<vehicle id = "veh24" type= "veh_passenger" depart="21630" >
<route edges =" -813722269#3 -813722269#3.7 -813722269#3.48 -813722269#3.84 -813722269#3.86 620762213#0 620762213#0.9 620762213#0.88 57883609#0 57883609#0.6 57883609#0.57 65588100#0 65588100#0.63 6343949#7 6343949#8 6343949#8.52 6343949#10 6343949#10.49 6343949#12 6343949#12.47 525497324#4 525497324#4.15 525497324#4.73 525497324#4.88 6430729#17 6430729#17.51 -620762224#0 343521145#0 343521145#0.47 343521145#0.69 337739267#0 337739267#1 -481291488#10 -481291488#10.44 -481291488#10.61 -481291488#10.85 -481291488#10.132 -481291488#10.142 243349944#7 243349944#8 -801995081#5 -801995081#5.197 -801995081#5.209 256994206#0 256994206#0.8 256994206#0.43 256994206#0.60 -396055523#12 -396055523#12.14 -396055523#12.39 -396055523#12.50 -396055523#12.73 -396055523#12.93 -396055523#12.112 -396055523#12.118 6447445#0 6447445#0.8 6447445#0.87 6447445#3 6447445#3.51 6447445#5 6447445#5.47 185485132#9 243349944#17 243349944#17.50 243349944#19 243349944#19.47 -22760521#3 -22760521#2 -22760521#2.81 -22760521#2.121 428246847#0 428246847#0.8 428246847#0.22 6386110#0 6386110#0.16 6386110#0.25 6386110#0.55 -243349338#6 -243349338#6.14"/>
</vehicle>
<vehicle id = "veh25" type= "veh_passenger" depart="21630" >
<route edges =" -816616074#1 -816616074#1.10 -816616074#1.14 -816616074#1.119 428341734#4 428341734#4.8 428246439#0 428246439#0.14 428246438#0 428246438#0.8 428246440#0 428246440#0.62 800744529#0 800744529#0.7 800744529#0.52 800744529#0.89 825336588#0 825336588#0.7 349901822#2 349901822#2.21 332092195#0 332092195#0.9 332092195#0.74 -22917111#30 -22917111#30.9 -22917111#30.50 -22917111#30.96 -22917111#26 -22917111#26.7 -22917111#26.41 -22917111#26.121 32135548#5 32135548#5.7 32135548#5.49 32135548#5.88 -6440371#11 -6440371#11.12 -6440371#11.144 293775902#8 293775902#8.6 293775902#8.49 293775902#8.91 6512920#8 6512920#8.4 6512920#8.74 6512920#8.89 6512920#8.101 6512920#8.139 525497323#0 525497323#0.50 66558981#0 66558981#0.29 66558981#0.132 243349944#6 -481291488#4 -481291488#4.47 40416132#0 40416132#0.19 -460419011#2 6464126#3 6464126#3.49 6464126#5 6464126#6 -6360256#1 -6360256#1.102 -6360256#0 -6360256#0.8 486875123#0 486875123#0.56 486875123#0.88 -185485118#1 6514312#0 6514312#0.70 185485132#0 185485132#0.7 481291012#2 481291012#2.49 481291012#5 481291012#5.49 6498476 6498476.121 6498476.127 6498476.134 926425193#1 926425193#1.12 926425193#1.24 926425193#1.34 926425191#3 926425191#4 926425191#4.20 6472293#4 6472293#4.162 8071924#4 8071924#5 259277920#0 259277920#0.29 259277920#0.47 6449970#8 -359671040#1 -359671040#1.39 -6441276#1 -6441276#1.40 6501822#8 6501822#8.52 -795671506#1 -795671506#1.44 -243339793#16 -243339793#16.49 -6386110#4 -6386110#4.86 -6464126#14 -6464126#14.50 6494975#2 243349338#5"/>
</vehicle>
<vehicle id = "veh26" type= "veh_passenger" depart="21630" >
<route edges =" 817434294 817434294.10 817434294.36 817434294.44 817434294.63 817434294.119 816616072#4 816616072#4.7 816616072#4.62 816616072#4.121 6430729#0 6430729#0.7 6430729#0.86 -813722270#4 -813722270#4.8 -813722270#4.54 -813722270#4.55 -813722270#4.87 -813722270#4.122 -816616073#1 -816616073#1.7 -569505974#1 -569505974#1.6 -569505974#1.33 -569505976#2 -569505976#2.9 -569505976#2.88 -569505976#2.115 -569505976#2.119 -569505978#1 -569505978#1.10 -569505979 -569505979.32 -569505979.79 337673338#0 337673338#0.14 185882764 185882764.13 185882764.14 185882765 185882765.16 185882765.26 185882765.30 185882765.31 395933841 164418944#0 164418944#0.13 164418944#0.18 164418944#0.32 164418944#0.39 -353690148#9 -353690148#9.7 -353690148#9.10 -353690148#9.12 -353690148#9.13 -353690148#9.38 -353690148#9.143 -353690148#6 -353690148#6.8 -353690148#6.122 -353690148#3 -353690148#3.7 -353690148#3.59 -353690148#3.121 893866056#0 893866056#0.8 893866056#0.64 893866056#0.88 353690154#0 353690154#0.7 353690154#0.49 353690154#0.90 -22917111#13 -22917111#13.8 -22917111#13.10 -22917111#13.79 -22917111#13.80 -22917111#13.98 -22917111#13.123 460419029#5 460419029#5.8 460419029#5.52 460419029#5.91 6440371#0 6440371#0.7 6440371#0.8 6440371#0.119 6440371#0.121 353690154#8 353690154#8.7 353690154#8.42 353690154#8.50 353690154#8.92 353690154#12 353690154#12.6 353690154#12.32 353690154#15 353690154#15.50 243339793#0 243339793#0.48 243339793#2 243339793#2.49 -801995082 -6380913#14 -6425689#3 -6425689#3.44 -460419007#0 -460419007#0.17 -460419007#0.46 -263669069#2 -263669069#2.25 -263669069#2.47 -263669069#2.55 -6447971#7 -6447971#6 6467507#4 6467507#4.48 -6515975#6 -6507809#4 -6447971#4 169917351#6 169917351#7 169917351#7.49 -6380913#3 -6380913#3.7 -6380913#3.66 -6380913#3.103 256996975#0 256996975#0.50 256996975#0.62 256996975#0.65 256996975#0.91 6461236#0 6461236#0.9 6461236#0.24 6461236#0.44 6461236#0.58 6461236#0.60 6384260#3 6384260#3.54 -6487445#4 -6487445#4.15 -6487445#4.55 -6487445#1 -6487445#1.78 256996976#3 256996976#3.7 256996976#3.76 460421482#0 460421482#0.8 460421482#0.73 6523501#0 6523501#0.9 6523501#0.105 169917351#22 169917351#22.7 169917351#22.72 -6494970#2 -6494970#2.4 -6494970#2.100 6358721#0 6358721#0.9 -6415147#3 6497081#2 6497081#2.38 6497081#2.47 6497081#2.53 6497081#2.60 6497081#2.67 6497081#2.70 6497081#2.74 6497081#2.81 6497081#2.120 6497081#6 6497081#6.44 -6414318#2 -6414318#2.8 -6414318#0 -6414318#0.76 -6414318#0.81 460418987#0 460418987#0.4 460418987#0.8 -6414273#1 -6414273#1.22 -460418992#4 -460418992#4.6 -460418992#4.125 -460418992#2 -460418992#2.50 -460418992#2.92 -337742188#11 -337742188#11.8 -337742188#11.28 -337742188#11.102 -22917670#2 -22917670#2.8 -22917670#2.40 -22917670#2.64 -22917670#2.71 6385335#0 6385335#0.11 6385335#0.13 6385335#0.159 6385335#3 6385335#3.59 6385335#3.109 6385335#3.125 976099001#0 976099001#0.11 976099001#0.44 6430364#0 6430364#0.9 6430364#0.41 6430364#0.82 -22917667#6 -22917667#6.7 -22917667#6.62 22917673#5 22917673#5.15 22917673#5.76 481291011#0 481291011#0.6 481291011#0.65 481291010#0 481291010#0.19 481291010#0.23 481291010#0.30 481291010#0.133 -22917670#12 -22917670#12.43 -22917670#12.73 -795846818#4 -795846818#4.7 -795846818#4.95 -795846818#4.102 460418978#3 460418978#3.9 460418978#3.49 369455641#1 369455641#1.28 369455641#1.78 512126022#0 512126022#0.11 512126022#0.46 185483738#4 185483738#4.14 6485999#0 6485999#0.42 6351337#1 6351337#1.120 6496652#4 6496652#4.7 6367253#5 -754699003#2 -754699003#2.70 -6354794#5 -6354794#5.7 -6354794#5.119 -6496652#8 -6496652#8.7 -22917678#2 -22917678#2.8 -22917678#2.134 -6367253#1 -6367253#1.137 -6467368#2 -661086629#2 -661086629#2.7 -661086629#0 -6351349#5 -256997441#5 -256997441#5.36 -256997441#5.83 14374224#4 14374224#4.44 14374224#4.54 14374224#4.84 14374224#4.122 185483738#0 -6371720#5 -6371720#5.41 157167355#0"/>
</vehicle>
<vehicle id = "veh27" type= "veh_passenger" depart="21630" >
<route edges =" -814326475#2 -814326475#2.9 -814326475#2.24 -814326475#2.41 -814326475#2.70 -814326475#2.91 -6456052#5 -6456052#5.10 -6456052#5.36 -6456052#5.120 -6456052#1 -6456052#1.10 -6456052#1.62 -607691082#1 -607691082#0 -6475815#3 -6475815#3.2 -6475815#3.17 -6475815#3.46 -428089348#3 -428089348#3.15 -428089348#3.21 -428089348#3.28 -353690151#5 -353690151#5.11 -353690151#5.12 -353690151#5.26 -353690151#5.83 -353690151#5.102 -353690151#2 -353690151#2.9 -353690151#2.22 -353690151#2.24 -353690151#2.39 -353690151#2.72 -353690151#2.92 -433500388#1 -433500388#1.11 -433500388#1.46 -433500388#1.73 -433500388#1.113 -433500388#1.115 -428088900#1 -428088900#1.10 -428088894#1 -428088894#1.25 -428088883#1 -428088883#1.15 -428088897 -428088888 -737711647 -332223490#1 -332223490#1.19 -428088887#1 -428088887#1.12 -428088892 -428088886#1 -428088886#1.24 -428088886#1.35 -428088886#1.45 -65588108#1 -65588108#1.18 -65588108#1.53 -332223489#3 -332223489#3.4 -332223489#3.15 -332223489#3.17 -332223489#3.21 -401497115 -401497115.113 -401497115.170 -401497115.214 -428233435 -460425668 -460425668.5 425646007#0 425646007#0.10 425646007#0.17 425646007#0.20 425646007#0.22 425646007#0.27 -724644768 -724644768.35 6402586#0 6402586#0.1 6402586#0.4 6402586#0.6 6402586#0.12 6402586#0.35 6402586#0.59 6402586#4 6402586#4.72 6402586#4.75 6402586#4.77 6402586#4.80 208021560#0 208021560#0.2 208021560#0.5 208021560#0.8 208021560#0.11 208021560#0.30 208021560#0.39 208021560#0.44 208021560#0.106 208021560#0.125 208021560#0.133 208021560#0.136 347092914#0 347092914#0.10 347092914#0.14 347092914#0.24 347092914#0.54 347092914#0.75 347092914#0.87 893872038 893872038.9 893872038.14 893872038.97 893872038.123 893872038.129 893872038.134 6405076#3 6405076#3.4 6405076#3.8 6405076#3.14 6405076#3.20 6405076#3.50 6405076#3.68 6405076#3.84 22917663#0 22917663#0.5 22917663#0.8 22917663#0.11 22917663#0.26 22917663#0.59 22917663#0.67 22917663#0.85 22917663#6 22917663#6.6 22917663#6.34 22917663#6.58 22917663#6.88 22917663#11 22917663#11.6 22917663#11.23 22917663#11.87 6465130#3 6465130#3.8 6465130#3.46 6465130#3.84 -347092915#9 -347092915#9.7 -347092915#9.50 -347092915#9.89 6506833#11 6506833#11.9 6506833#11.45 6506833#11.74 6506833#11.79 22760519#0 22760519#0.7 22760519#0.27 22760519#3 22760519#3.9 22760519#3.21 22760519#3.33 22760519#3.91 965874293#0 965874293#0.9 965874293#0.40 49394452#8 49394452#8.8 49394452#8.188 -6388742#2 -6388742#2.30 -6388742#2.38 965874292#7 965874292#7.8 965874292#7.41 965874292#10 965874292#10.35 965874292#12 965874292#12.8 965874292#12.69 158123767#0 158123767#0.10 158123767#0.11 158123767#0.50 158123767#0.74 158123767#0.86 158123767#0.115 158123767#0.122 158123767#0.134 158123767#0.139 158123767#0.166 795669782#0 795669782#0.54 6414318#1 6414318#1.86 6414318#3 -157167355#0"/>
</vehicle>
</routes>
