<?xml version="1.0" encoding="UTF-8"?>
<routes xmlns:xsi="http: // www.w3.org/2001/XMLSchema-instance" xsi:noNamespaceSchemaLocation="http: // sumo.dlr.de/xsd/routes_file.xsd">
<vType id="veh_passenger" vClass="passenger"/>

<vehicle id = "veh0" type= "veh_passenger" depart="0" >
<route edges =" -813722269#3 -813722269#3.7 -813722269#3.48 -813722269#3.84 -813722269#3.86 620762213#0 620762213#0.9 620762213#0.88 620762212#0 620762212#0.8 620762212#0.52 6343949#6 6343949#7 6343949#8 6343949#8.52 6343949#10 6343949#10.49 6343949#12 6343949#12.47 -525497324#3 -525497324#2 243349944#4 243349944#4.53 243349944#6 243349944#7 -460419011#3 -460419011#2 6464126#3 6464126#3.49 6464126#5 -460419028#3 243349338#0 243349338#0.18 243349338#1 243349338#2 243349338#3 243349338#3.49 243349338#5"/>
</vehicle>
<vehicle id = "veh1" type= "veh_passenger" depart="0" >
<route edges =" -6457203#16 -6457203#16.59 975126260#0 975126260#0.49 -6505136#16 6368504#5 6368504#5.48 6368504#7 6368504#7.50 -6513783#8 -6513783#7 37657905#3 37657905#3.48 37657905#5 37657905#5.10 37657905#5.46 37657905#7 37657905#7.49 476409329 -6383185#5 6384373#1 6384373#2 6384373#2.45 6384373#2.56 -65588097#1 -65588097#1.119 337818330 6463035#0 6463035#0.14 6463035#0.38 6463035#3 -6495801#0 -185485132#12 -185485132#12.125 -185485132#11 -185485132#11.16 243349945#9 243349945#9.50 -6494975#8 -6494975#7 -6494975#6 -6494975#6.81 256994205#3 428246847#0 428246847#0.8 428246847#0.22 6386110#0 6386110#0.16 6386110#0.25 6386110#0.55 -243349338#6 -243349338#6.14"/>
</vehicle>
<vehicle id = "veh2" type= "veh_passenger" depart="0" >
<route edges =" -6522868 -6403883#7 -6403883#6 -6403883#5 -6403883#4 -6403883#3 -6403883#2 158882505#7 158882505#8 8111709#0 8111709#0.47 8111709#2 8111709#2.49 8111709#4 8111709#4.49 -6513783#5 6384359#8 6384359#9 6384359#9.26 -6381494#3 -6381494#3.43 6463017#6 6463017#6.48 -6386837#0 337739268 337739268.124 337739267#0 337818462 337818462.3 337818462.6 337739271#1 337739271#1.6 337739269#0 -460419011#4 243349944#8 -801995081#5 -801995081#5.197 -801995081#5.209 -801995081#2 -801995081#2.109 -801995081#0 243339793#4 243339793#5 243339793#6 243339793#6.50 243339793#6.74 -22917112 -185485118#1 6514312#0 6514312#0.70 -6523501#6 -6523501#6.6 185485127#1 -6494970#4 -6494970#4.172 -6494970#2 -6494970#2.4 -6494970#2.100 6358721#0 6358721#0.9 6415147#4 6415147#5 6415147#6 6351349#2 6351349#3 6351349#3.107 6351349#5 -185483733 -6414318#4 -157167355#0"/>
</vehicle>
<vehicle id = "veh3" type= "veh_passenger" depart="0" >
<route edges =" 817434294 817434294.10 817434294.36 817434294.44 817434294.63 817434294.119 6343949#0 6343949#0.7 6343949#0.86 6343949#3 6343949#3.9 6343949#3.49 620762212#3 6430729#6 6430729#6.47 6430729#6.48 6430729#9 6430729#9.48 6430729#11 6430729#11.51 6430729#13 6430729#13.48 6430729#15 6430729#15.48 6430729#17 6430729#17.51 -620762224#0 -66558981#7 -66558981#7.65 -66558981#7.83 -66558981#7.105 -66558981#7.123 -66558981#2 -66558981#2.131 -66558981#2.234 525497323#2 525497323#2.81 -481291488#2 -481291488#1 -481291488#0 -481291488#0.69 -481291488#0.82 -6447971#10 -6447971#10.11 -6447971#9 -6447971#8 -6447971#7 -6447971#6 -6447971#5 -6447971#4 169917351#6 169917351#7 169917351#7.49 169917351#9 169917351#9.48 169917351#9.87 169917351#12 169917351#12.9 169917351#12.42 169917351#12.90 -6360239#3 -6360239#3.6 -6360239#3.69 -6360239#3.102 6487445#0 6487445#0.8 6415147#0 6415147#0.61 6449462#3 6449462#3.7 6449462#3.50 6449462#3.60 6449462#3.72 6449462#3.87 795669782#0 795669782#0.54 795669782#2 6371720#2 6371720#3 157167355#0"/>
</vehicle>
<vehicle id = "veh4" type= "veh_passenger" depart="3605" >
<route edges =" -813722269#3 -813722269#3.7 -813722269#3.48 -813722269#3.84 -813722269#3.86 620762213#0 620762213#0.9 620762213#0.88 57883609#0 57883609#0.6 57883609#0.57 57883609#3 57883609#3.43 57883609#3.52 57883609#3.60 57883609#3.80 -8071898#3 -8071898#2 6430729#11 6430729#11.51 65588093#3 292812445#3 292812445#3.49 -6440348#14 6430729#15 6430729#15.48 -525497324#7 -525497324#7.39 -525497324#7.54 -525497324#7.112 -525497324#3 -525497324#2 243349944#4 243349944#4.53 -66558981#2 -66558981#2.131 -66558981#2.234 525497323#2 525497323#2.81 481291488#3 481291488#3.216 243349944#7 -460419011#3 40416132#1 40416132#1.90 -801995081#2 -801995081#2.109 6464126#5 -460419028#3 243349338#0 243349338#0.18 243349338#1 243349338#2 243349338#3 243349338#3.49 243349338#5"/>
</vehicle>
<vehicle id = "veh5" type= "veh_passenger" depart="3605" >
<route edges =" 6457203#17 6457203#18 6457203#18.8 6457203#18.11 37686291#0 37686291#0.47 37686291#0.88 37686291#0.94 37686291#0.98 157284449#0 157284449#0.6 157284449#0.28 242516209#2 242516209#2.53 37657904 603522176#0 603522176#0.48 -6513783#10 -6513783#9 -6513783#8 -170683231#20 -170683231#20.51 6381494#12 6381494#12.56 6381494#13 6381494#13.7 6381494#13.132 263666867#0 263666867#0.20 263666867#0.49 263666867#3 263666867#3.49 476409334#0 603522176#8 603522176#8.47 -6383185#12 -6383185#11 -6383185#11.37 -6383185#11.86 -6383185#11.111 -6383185#11.155 476409332#2 476409332#2.43 -6460085#6 -6460085#6.27 -170683231#7 65588097#6 476409332#5 -6448612#8 -6448612#7 -6448612#7.6 -6384373#8 -6384373#8.6 -6384373#8.46 -6384373#8.57 -6384373#4 -6384373#4.41 -6384373#4.51 -6384373#1 -6383185#4 -6383185#4.120 8071925#2 8071925#2.36 8071925#2.74 460399791#0 460399791#0.9 460399791#0.31 460399791#0.97 460399791#0.99 -537678339#1 -537678339#1.11 338701493#0 338701493#0.9 243334881#0 243334881#0.7 243334881#0.57 243334881#0.96 805680044#1 805680044#1.7 805680044#1.49 805680044#1.91 6448612#0 6448612#0.9 6448612#2 6448612#2.70 428315592#3 428315592#3.28 428315592#3.60 428315592#5 428315591#0 428315591#1 428315591#2 428315591#2.6 428315591#2.15 428315591#2.25 428315591#2.59 428315591#2.76 912599280 337818332#0 337818332#0.7 337818332#0.70 -19000995#2 -19000995#2.7 -19000995#2.29 535540392#0 535540392#0.117 -40416127#2 -40416127#2.7 -40416127#2.26 -6464371#2 -6464371#2.9 -6464371#2.33 -6349021#0 -6356676#2 -6356676#2.14 -6356676#2.25 -6356676#2.40 -6356676#1 6463035#7 279467136#1 170683665#5 170683665#5.50 170683665#7 6353867#0 40416130#2 -6353172#0 170683665#10 170683665#10.11 170683665#13 -6369950#2 -6369950#2.24 -6463035#14 -6521828#3 -6521828#3.7 -6521828#3.107 -6521828#3.133 -359671039#10 -359671039#10.86 805658294#9 805658294#9.71 -532125609#3 -243349945#18 -359671039#6 -243349944#25 -243349944#24 -243349944#24.50 -243349944#22 -243349944#22.50 -243349944#20 -243349944#20.50 -243349944#18 -243349944#18.47 185485132#10 -243349945#8 -243349945#8.11 -243349945#8.51 22917113#7 22917113#7.114 22917113#7.123 -361784407#3 -361784407#3.43 -361784407#3.58 -361784407#3.88 -6360256#13 -6360256#13.8 -6360256#13.10 -6360256#13.19 -6360256#13.61 -6360256#13.76 -6360256#13.125 -6360256#9 -6360256#9.6 243349944#13 243349944#13.47 243349944#13.51 -22917113#5 6447445#5 6447445#5.47 6447445#7 6447445#7.46 6447445#9 6447445#9.49 -22760521#2 -22760521#2.81 -22760521#2.121 428246847#0 428246847#0.8 428246847#0.22 6386110#0 6386110#0.16 6386110#0.25 6386110#0.55 -243349338#6 -243349338#6.14"/>
</vehicle>
<vehicle id = "veh6" type= "veh_passenger" depart="3605" >
<route edges =" -6522868 -6403883#7 -6403883#6 -6403883#5 6368504#0 6368504#1 6368504#1.33 6368504#3 6368504#3.46 6368504#5 6368504#5.48 603522174#1 603522174#2 603522174#2.123 -8111708#5 -8111708#5.7 -8111708#5.45 -8111708#2 -8111708#2.52 -8111708#2.57 -8111708#2.87 -8111708#2.90 -8111708#2.92 -8111708#2.94 -8111708#2.97 -8111708#2.99 -158882517#7 -158882517#7.6 -158882517#7.8 -158882517#7.10 -158882517#7.11 -158882517#7.13 -158882517#7.33 -158882517#5 6403883#3 -158882511#7 -158882511#7.20 -158882511#7.33 -158882511#4 -158882511#3 -158882511#2 -158882511#2.44 -6368665#4 -6368665#4.121 -158882517#0 -896104580#1 -896104580#1.68 428098978#0 428098978#0.6 428098982 428314470 428314464 428098977 -6346308#11 -6346308#11.43 -6346308#11.48 752851600#13 752851600#13.62 -8071894#3 -8071894#2 -6358524#12 -6358524#11 -6358524#11.47 -6358524#11.63 -6414229#11 -6374789#10 -6374789#10.121 -6464391#8 -6464391#8.3 -6464391#8.64 -6358524#5 -6358524#5.5 -6358524#5.96 -6384350#15 -6384350#15.7 -6384350#15.16 -6384350#15.19 -6384350#15.22 -6384350#15.25 -6384350#15.30 -6384350#15.35 -6384350#15.43 -6384350#15.47 -6384350#15.51 -6384350#15.52 -6384350#15.55 -6384350#15.71 -6374789#5 -6374789#5.9 -6374789#5.118 -6374789#2 -6374789#2.29 -6374789#2.54 -6374789#2.90 6474762#2 6474762#2.29 6474762#2.32 6474762#2.34 6474762#3 6474762#3.35 6474762#3.38 6474762#3.42 6474762#3.46 6474762#3.49 6474762#3.54 6474762#5 6474762#5.49 6474762#5.86 428098988#0 428098988#0.8 428098988#0.9 428098988#0.54 428098988#0.75 428246434#0 428246434#0.18 428246435#0 428246435#0.10 428246433 428246433.72 428246432#0 428246432#0.13 -171739214#7 -171739214#7.13 -171739214#7.36 -171739214#7.52 -171739214#7.90 752851600#4 752851600#4.6 752851600#4.8 752851600#4.28 752851600#4.34 752851600#4.35 752851600#4.38 752851600#4.44 752851600#4.97 -6464391#2 -6464391#2.4 -6464391#2.68 -621283351#2 -621283351#2.12 -621283351#2.21 -8071890#1 -8071890#1.42 171739214#9 171739214#10 6368665#0 6368665#0.4 6368665#0.6 6368665#0.48 158882505#2 -6346524#0 -171739214#12 -6346526#5 -6346526#5.121 -6346526#3 -6346526#3.8 -6346526#3.30 -6346526#3.122 158882495#0 158882495#0.6 6411908#0 337668916#6 337668916#6.37 337668916#6.48 -160552467#0 171739207#2 171739207#2.46 6403874#0 6403874#1 6403874#1.38 6403883#1 158882505#7 158882505#8 8111709#0 8111709#0.47 8111709#2 8111709#2.49 6464042#8 6464042#8.123 37657905#0 37657905#0.5 37657905#0.47 -6513783#6 757399066#0 757399066#0.51 757399066#0.87 -6381494#6 -6381494#6.57 -6381494#6.77 -6381494#6.94 -6381494#3 -6381494#3.43 6463017#6 6463017#6.48 -6386837#0 337739268 337739268.124 337739267#0 337818462 337818462.3 337818462.6 337739271#1 337739271#1.6 337739269#0 -460419011#4 243349944#8 -801995081#5 -801995081#5.197 -801995081#5.209 256994206#0 256994206#0.8 256994206#0.43 256994206#0.60 460419028#0 460419028#0.11 460419028#0.49 460419028#0.79 460419028#0.95 460419028#3 6464126#6 -6360256#1 -6360256#1.102 -6360256#0 -6360256#0.8 486875123#0 486875123#0.56 486875123#0.88 22917112 243339793#9 243339793#9.48 -185485132#2 -185485132#2.8 481291012#2 481291012#2.49 6494975#0 6494975#0.105 6494975#1 6494975#1.9 6464126#13 6464126#13.49 6464126#15 6464126#15.47 795671505#2 243349338#8 -6501822#12 6464130#0 6464130#0.42 -359671039#1 -6336174#1 -6336174#1.42 -6501822#9 -6501822#9.25 -6501822#8 -6501822#8.7 -6501822#7 8071924#5 259277920#0 259277920#0.29 259277920#0.47 259277920#1 -6506505#3 -6506505#2 -6506505#1 -6506505#1.22 -6467510#1 -6467510#1.38 -6449970#2 -6449970#1 -6449970#1.18 -6507818#2 -6507818#0 6501822#1 -6507813#3 -6507813#3.42 -6507813#3.51 6472293#2 -185485127#6 -185485127#5 -185485127#5.56 -185485127#3 -185485127#3.10 -185485127#1 -6523501#4 -6523501#4.175 169917351#22 169917351#22.7 169917351#22.72 -6494970#2 -6494970#2.4 -6494970#2.100 6358721#0 6358721#0.9 6415147#4 428247193#3 428247193#3.27 486632638#0 486632638#0.14 486632638#0.27 256996977#0 256996977#0.9 256996977#0.40 256996977#4 256996977#4.22 256996977#4.24 256996977#4.38 6351349#0 6351349#0.4 6351349#0.39 6415147#7 6354836#1 6354836#1.40 -642753173 6351349#3 6351349#3.107 -256997441#5 -256997441#5.36 -256997441#5.83 14374224#4 14374224#4.44 14374224#4.54 14374224#4.84 14374224#4.122 -6414318#4 -157167355#0"/>
</vehicle>
<vehicle id = "veh7" type= "veh_passenger" depart="3605" >
<route edges =" 817434294 817434294.10 817434294.36 817434294.44 817434294.63 817434294.119 6343949#0 6343949#0.7 6343949#0.86 6343949#3 6343949#3.9 6343949#3.49 6343949#6 65588100#2 65588100#2.20 65588100#2.57 6430729#9 6430729#9.48 -8071898#1 -8071898#1.60 -8071898#1.73 -8071898#1.89 -8071898#1.91 292812445#0 292812445#0.35 292812445#0.50 6505136#0 6505136#0.18 6505136#0.27 6505136#0.73 6505136#0.87 6505136#0.118 6463017#0 6463017#0.48 6463017#2 6463017#2.44 6463017#2.48 -6513783#1 -6513783#1.10 -6513783#0 -525497324#8 6430729#17 6430729#17.51 -620762224#0 -66558981#7 -66558981#7.65 -66558981#7.83 -66558981#7.105 -66558981#7.123 -243349944#5 -243349944#5.51 -243349944#3 -243349944#3.48 -243349944#3.77 -243349944#3.93 -6440348#5 -6440348#5.15 -6440348#5.21 -6440348#5.35 -6440348#5.44 -6440348#5.122 8071900#8 8071900#8.6 8071900#8.7 8071900#8.49 8071900#8.53 -525497324#0 -179552126 -179552126.19 -179552126.34 -179552126.50 -179552126.90 -6440371#11 -6440371#11.12 -6440371#11.144 -6440371#8 -6440371#8.7 -6440371#8.122 -6440371#8.124 -6440371#8.125 -6464138#7 -6464138#7.10 -6464138#7.47 -6464138#7.91 -22917111#16 -22917111#16.4 -22917111#16.5 -22917111#16.7 -22917111#16.120 -22917111#16.122 353690154#4 353690154#4.6 353690154#4.49 353690154#4.54 353690154#4.87 353690154#8 353690154#8.7 353690154#8.42 353690154#8.50 353690154#8.92 353690154#12 353690154#12.6 353690154#12.32 353690154#15 353690154#15.50 243339793#0 243339793#0.48 -460419011#0 -460419011#0.11 -460419014 -460419014.67 6425689#2 6425689#2.48 6380913#14 481291014#0 481291014#0.53 460419024#0 460419024#0.9 460419024#0.19 460419024#0.34 460419024#0.53 460419024#0.102 -6425675 -6380913#12 -6380913#11 -6380913#11.53 6463536#0 6463536#0.21 6463536#0.30 6463536#0.40 6463536#0.47 6463536#0.52 6463536#0.58 6463536#0.69 6463536#0.79 6463536#0.80 6516509#4 6516509#4.6 6516509#4.33 6516509#4.47 6516509#4.52 6516509#4.66 6516509#4.84 -6467507#9 -6467507#9.9 -6467507#7 -6467507#7.46 -6467507#5 -6467507#5.50 -6467507#3 -6467507#2 -6467507#2.10 -6467507#2.91 512168130#0 512168130#0.7 512168130#0.140 512168130#0.193 512168130#0.195 -901419467#2 -901419467#2.9 -901419467#2.49 -901419467#2.54 -901419467#2.71 -901419467#2.91 -353690160#5 -353690160#5.7 -353690160#5.91 -353690160#2 -353690160#2.8 -353690160#2.90 -486844942#6 -486844942#6.9 -486844942#6.25 -486844942#6.67 -486844942#6.92 -6476327#15 -6476327#15.10 -6476327#15.38 -6476327#15.65 -6476327#11 -6476327#10 -6476327#10.8 -6476327#10.86 893868549#12 893868549#12.7 893868549#12.90 893868548#0 893868548#0.6 893868548#0.84 876005346#0 876005346#0.6 876005346#0.88 876005346#3 876005346#4 876005346#4.5 876005346#4.68 -6440364#9 -6440364#9.7 -6440364#9.83 901474739#7 901474739#7.8 901474739#7.82 6507809#0 6507809#0.7 6507809#0.88 6507809#3 6507809#4 6507809#5 6507809#5.51 6507809#7 6507809#7.46 6507809#7.87 6516509#11 6516509#11.6 6516509#11.34 6516509#11.86 6516509#15 6516509#15.7 6516509#15.35 6516509#15.48 6516509#15.68 6516509#15.70 6516509#15.79 6516509#15.84 6516509#15.98 6516509#15.101 256996976#0 256996976#0.11 256996976#0.20 256996976#0.46 256996976#0.79 256996976#3 256996976#3.7 256996976#3.76 6449462#0 6449462#0.9 6449462#0.46 6415147#2 6497081#2 6497081#2.38 6497081#2.47 6497081#2.53 6497081#2.60 6497081#2.67 6497081#2.70 6497081#2.74 6497081#2.81 6497081#2.120 -460421481#0 -460421481#0.36 -460421481#0.41 795669782#0 795669782#0.54 795669782#2 6371720#2 6371720#3 157167355#0"/>
</vehicle>
<vehicle id = "veh8" type= "veh_passenger" depart="7210" >
<route edges =" -816616074#1 -816616074#1.10 -816616074#1.14 -816616074#1.119 428341734#4 428341734#4.8 428246439#0 428246439#0.14 428246438#0 428246438#0.8 428246440#0 428246440#0.62 800744529#0 800744529#0.7 800744529#0.52 800744529#0.89 -349901821 349901822#0 349901822#0.9 96029553#0 96029553#0.9 96029553#0.15 96029553#0.59 8071900#0 8071900#0.7 8071900#0.18 8071900#0.88 8071900#4 8071900#4.7 8071900#4.49 8071900#4.88 8071900#8 8071900#8.6 8071900#8.7 8071900#8.49 8071900#8.53 -525497324#0 525497323#0 525497323#0.50 525497323#2 525497323#2.81 -481291488#2 -481291488#1 6464126#0 6464126#0.46 6464126#0.49 6464126#3 6464126#3.49 -801995081#0 243339793#4 -460419028#4 6464126#6 6464126#7 6464126#7.50 6464126#9 6464126#9.46 -185485132#3 -185485132#3.101 243339793#11 243339793#11.47 243339793#13 243339793#13.49 243339793#15 243339793#15.46 795671506#0 795671506#0.46 -6501822#8 -6501822#8.7 -6501822#7 8071924#5 259277920#0 259277920#0.29 259277920#0.47 6449970#8 6449970#9 6336174#4 6336174#5 243349331#1 243349331#1.24 243349331#2 243349331#2.15 243349331#2.84 460419027 352434856 352434856.35 -878126486#2 -878126486#2.9 -878126486#2.10 -878126486#2.42 243349941#8 -6447445#20 -6447445#20.21 -6447445#20.41 263665040#0 263665040#0.42 263665040#0.45 263665040#0.101 243349944#29 243349941#11 -243349945#21 -243349945#20 -352434874#2 -243349944#27 532125609#2 532125609#3 -805658294#9 -805658294#9.8 -359671039#8 -359671039#8.55 -359671039#6 -243349944#25 -160624558#0 -160624558#0.117 -160624558#0.124 6447445#14 6447445#15 -532125609#0 -438895608#1 -438895608#0 -438895608#0.27 -160624556 -160624556.131 -6501822#12 -6501822#11 -6464126#18 -6464126#18.45 -6464126#16 -6464126#16.47 -6464126#14 -6464126#14.50 6494975#2 243349338#5"/>
</vehicle>
<vehicle id = "veh9" type= "veh_passenger" depart="7210" >
<route edges =" -6457203#16 -6457203#16.59 975126260#0 975126260#0.49 975126260#2 975126260#2.48 603522173#0 603522173#0.48 603522173#2 603522173#2.51 -6381494#14 -6381494#14.47 -6381494#14.172 -6368504#11 -6368504#11.50 -6368504#11.52 -6513783#8 -170683231#20 -170683231#20.51 -170683231#18 -170683231#18.37 -170683231#18.49 -170683231#15 -170683231#15.34 -170683231#15.47 -170683231#15.61 -170683231#11 -170683231#11.43 -170683231#9 -170683231#9.43 -6460085#5 -6460085#5.109 -6460085#4 -6460085#4.20 -6460085#3 -6460085#3.55 -6460085#1 -6460085#1.27 -6460085#1.86 -6460085#1.119 465799093#0 465799093#0.8 465799093#0.46 465799093#0.91 337818330 428315592#0 428315592#0.12 428315592#0.53 428315592#0.95 -6448612#3 -6448612#3.16 -6448612#1 -6448612#1.133 805680044#5 805680044#5.6 805680044#5.49 6495801#0 6495801#1 170683665#0 170683665#0.4 170683665#0.48 170683665#0.50 -6356676#1 -6356676#0 805680044#10 -243349942#2 -805658294#3 -805658294#3.49 -805658294#1 -805658294#1.44 -805658294#1.57 -185485132#11 -185485132#11.16 -243349945#8 -243349945#8.11 -243349945#8.51 -22917113#6 243349944#15 243349944#15.48 -185485132#9 6447445#7 6447445#7.46 -6494975#6 -6494975#6.81 256994205#3 428246847#0 428246847#0.8 428246847#0.22 6386110#0 6386110#0.16 6386110#0.25 6386110#0.55 -243349338#6 -243349338#6.14"/>
</vehicle>
<vehicle id = "veh10" type= "veh_passenger" depart="7210" >
<route edges =" -6522868 6403883#8 -6428544#15 -6428544#15.8 -6462093 -6462093.45 -6462093.54 -6462093.65 -6462093.80 -6462093.95 -6462093.117 -6462093.128 -6462093.141 -6462093.175 6323849#2 -160552467#11 -160552467#11.13 -160552467#11.23 -160552467#11.33 -160552467#11.44 -160552467#11.54 -160552467#11.62 -160552467#11.70 -160552467#11.80 -160552467#11.88 -160552467#11.115 -160552467#11.127 -8071379#3 -8071379#3.41 -8071379#1 -8071379#1.46 -6346524#3 -6346524#3.8 -6346524#3.13 -6346524#3.18 -6346524#3.26 -6346524#3.31 -6346524#3.36 -6346524#3.41 -6346524#3.51 158882511#3 158882511#4 158882511#5 158882511#5.46 158882511#5.58 -6403883#3 -6403883#2 -6403883#1 -6403874#2 -6403874#2.90 337668916#10 337668916#11 337668916#11.20 337668916#11.35 8071899 6457203#0 6457203#1 6457203#1.8 6457203#1.16 6457203#1.38 6457203#1.55 6457203#5 6457203#5.28 6457203#5.42 6457203#5.68 6457203#5.82 6457203#5.104 -158882517#7 -158882517#7.6 -158882517#7.8 -158882517#7.10 -158882517#7.11 -158882517#7.13 -158882517#7.33 6469837#3 6469837#4 6469837#4.92 6368504#1 6368504#1.33 6368504#3 6368504#3.46 -6505136#15 8111707#2 8111707#2.47 603522174#2 603522174#2.123 -8111708#5 -8111708#5.7 -8111708#5.45 -6505136#13 -6505136#13.115 8111709#2 8111709#2.49 8111709#4 8111709#4.49 -6513783#5 6384359#8 6384359#9 6384359#9.26 -6381494#3 -6381494#3.43 -6381494#1 -6381494#0 -620762224#1 -620762224#0 343521145#0 343521145#0.47 343521145#0.69 337739267#0 337739267#1 -481291488#10 -481291488#10.44 -481291488#10.61 -481291488#10.85 -481291488#10.132 -481291488#10.142 243349944#7 460419011#4 337739269#1 337739269#1.30 481291013#0 481291013#0.16 481291013#0.30 481291013#0.70 481291013#0.75 481291013#0.79 481291013#0.109 481291013#0.113 737709039#0 737709039#0.8 737709039#0.14 737709039#2 737709039#2.53 737709039#2.59 338701493#0 338701493#0.9 396055523#1 396055523#1.42 396055523#1.177 396055523#1.183 396055523#5 396055523#5.8 396055523#5.42 243349945#0 243349945#0.6 243349945#0.83 -6360256#9 -6360256#9.6 -6360256#7 -6360256#7.5 6447445#3 6447445#3.51 -22917113#4 -22917113#3 -243349338#1 6360256#4 -396055524#1 -396055524#1.29 -396055524#1.40 -396055524#1.64 -396055524#1.86 460419028#0 460419028#0.11 460419028#0.49 460419028#0.79 460419028#0.95 460419028#3 460419028#4 243339793#5 -6360256#0 -6360256#0.8 486875123#0 486875123#0.56 486875123#0.88 -185485118#1 6514312#0 6514312#0.70 -6523501#6 -6523501#6.6 -6523501#4 -6523501#4.175 -169917351#21 -169917351#21.6 -169917351#21.71 -6452520#2 -6452520#2.4 -6452520#2.101 460421482#0 460421482#0.8 460421482#0.73 6497081#0 6497081#0.8 6415147#3 6415147#4 6415147#5 -6489809#1 -6489809#1.47 6391682#0 6391682#0.62 6391682#2 6391682#2.12 6391682#2.24 6391682#2.34 6391682#2.45 185485127#6 -6472293#2 -6472293#1 -6472293#1.180 -6472293#1.202 256996977#6 256996977#6.43 256996977#6.78 6354836#0 6354836#0.6 -6415147#7 6351349#2 6351349#3 6351349#3.107 256997441#6 256997441#6.46 256997441#8 256997441#8.82 6335280 6335280.16 6335280.119 6335280.125 -661086630#4 -661086630#4.5 -661086630#4.8 -661086630#4.25 -661086630#4.63 6354836#5 6354836#5.54 6354836#7 6354836#7.92 -6467368#3 6367253#0 6367253#0.7 6367253#2 6367253#2.9 6367253#2.121 -6496652#5 -6496652#5.73 -6496652#3 -6496652#3.8 -185483738#8 -185483738#8.6 -185483738#8.58 -185483738#5 -185483738#5.100 -185483738#3 -185483738#3.11 -185483738#3.19 -185483738#2 -185483738#2.93 -185483738#0 -6414318#4 -157167355#0"/>
</vehicle>
<vehicle id = "veh11" type= "veh_passenger" depart="7210" >
<route edges =" -814326475#2 -814326475#2.9 -814326475#2.24 -814326475#2.41 -814326475#2.70 -814326475#2.91 -6456052#5 -6456052#5.10 -6456052#5.36 -6456052#5.120 -607690679#4 -607690679#4.9 -607690679#4.87 -607690679#4.94 -607690679#4.99 808907363#0 808907363#0.10 808907363#0.18 808907363#0.23 808907363#0.35 808907363#0.46 758463801 758463801.20 758463801.35 758463801.44 332601014#0 332601014#0.1 332601014#0.7 332601014#0.13 723013181#0 6367347#0 6367347#0.4 6367347#0.10 6367347#0.126 6367347#0.159 6367347#0.250 159118040#0 159118040#0.7 159118040#0.47 159118040#0.53 332601013#0 332601013#0.7 332601013#0.16 332601013#0.35 332601013#0.52 332601013#0.55 332601013#0.63 658284001#0 658284001#0.6 658284001#0.39 658284001#0.53 -658284000#1 -658284000#1.15 -658284000#1.52 95600805#0 95600805#0.117 -548654006#1 -548654006#1.9 -548654006#1.38 -548654006#1.47 -548654006#1.55 -742713664#1 -742713664#1.7 -742713664#1.9 -742713664#1.19 -749754754#1 -749754754#1.14 -749754754#1.29 -749754754#0 -749754754#0.11 -749754755 -749754755.11 -749754755.23 -749754755.34 -749754755.44 -749754755.57 -749754755.70 -749754755.72 -749754755.82 -749754755.92 -749754755.102 6479778#0 6479778#0.15 6479778#2 749754758#0 749754758#0.30 749754758#0.125 6384350#8 6384350#8.4 6384350#8.47 6384350#8.86 6374789#6 6374789#6.4 6374789#6.119 -6464391#8 -6464391#8.3 -6464391#8.64 6358524#6 6358524#6.5 6358524#6.55 6414229#12 752851600#11 752851600#11.84 -6346308#9 -6346308#9.33 -6346308#9.41 -6346308#6 6374789#13 8071894#0 8071894#1 8071894#2 8071894#3 8071894#4 -6470834 -6470834.4 -6470834.8 -6470834.12 -428098986 -428098986.2 -428098986.6 -428314467 -428314467.16 -428314460 -428098985#1 -428098985#1.1 621283354 158882561#0 158882561#0.63 158882561#0.77 158882561#0.95 158882561#0.112 158882561#3 6400858#0 6400858#0.3 6400858#0.7 6400858#0.11 6400858#0.15 6400858#0.58 428098973 428098976#0 428098976#0.28 428098976#0.31 6428544#6 -337099385#1 -337099385#0 -337099385#0.153 -337099385#0.159 -6368665#5 -6368665#5.9 -6368665#5.17 -6368665#5.26 -6368665#5.35 -6368665#5.53 -6368665#4 -6368665#4.121 -6368665#2 158882505#2 -6346524#0 171739214#13 171739214#14 -160552467#5 -160552467#5.18 -160552467#5.25 -160552467#5.30 -160552467#5.63 -160552467#5.85 337668916#8 337668916#8.47 -6403874#0 171739207#4 171739207#4.40 171739207#4.43 171739207#4.47 171739207#4.50 171739207#4.52 171739207#4.54 171739207#4.77 171739207#4.80 171739207#4.82 171739207#4.85 171739207#4.87 171739207#4.90 171739207#4.113 8071898#0 8071898#0.8 8071898#0.10 8071898#0.26 8071898#0.40 8071898#2 6343949#8 6343949#8.52 -65588093#1 -65588093#1.103 -65588093#1.123 -65588093#1.126 -65588093#1.130 -808903542#1 -808903542#1.4 -808903542#1.8 -808903542#1.13 -808903542#1.51 -808903542#1.55 -808903542#1.64 620762214 332092195#0 332092195#0.9 332092195#0.74 460423532#0 460423532#0.2 620762218#0 620762218#0.55 620762218#0.66 620762218#0.68 620762218#0.81 -6440348#7 -6440348#7.9 243349944#0 243349944#0.4 243349944#0.20 243349944#0.49 243349944#4 243349944#4.53 -66558981#2 -66558981#2.131 -66558981#2.234 -6481166#12 -6481166#11 -6481166#11.122 -6481166#11.125 -6464138#13 -6464138#13.47 -6512920#5 -6512920#5.6 -6512920#5.9 -6512920#5.119 -6512920#5.124 353690154#12 353690154#12.6 353690154#12.32 -6481166#9 -6481166#9.8 -6481166#8 -6481166#8.162 263669069#0 -6447971#7 6463532#0 6463532#0.49 6463532#2 6463532#2.50 -6380913#7 -6380913#7.22 -6467507#7 -6467507#7.46 -6515975#6 -6515975#5 -6515975#5.48 -6515975#3 -6515975#3.6 -6515975#3.44 -6515975#3.102 256996973#0 256996973#0.33 256996973#0.45 256996973#0.49 6380913#0 6380913#0.8 6380913#0.45 6380913#0.104 169917351#9 169917351#9.48 169917351#9.87 169917351#12 169917351#12.9 169917351#12.42 169917351#12.90 -6360239#3 -6360239#3.6 -6360239#3.69 -6360239#3.102 6487445#0 6487445#0.8 6415147#0 6415147#0.61 6449462#3 6449462#3.7 6449462#3.50 6449462#3.60 6449462#3.72 6449462#3.87 795669782#0 795669782#0.54 795669782#2 6371720#2 6371720#3 157167355#0"/>
</vehicle>
<vehicle id = "veh12" type= "veh_passenger" depart="10815" >
<route edges =" -813722269#3 -813722269#3.7 -813722269#3.48 -813722269#3.84 -813722269#3.86 620762213#0 620762213#0.9 620762213#0.88 620762212#0 620762212#0.8 620762212#0.52 6343949#6 6343949#7 6343949#8 6343949#8.52 6343949#10 6343949#10.49 -6440348#10 -6440348#10.4 -6440348#10.6 -6440348#10.48 -6440348#10.83 620762218#3 620762218#3.7 -525497324#2 243349944#4 243349944#4.53 243349944#6 243349944#7 243349944#8 243349944#9 396055523#9 396055523#9.6 396055523#9.20 396055523#9.54 6447445#0 6447445#0.8 6447445#0.87 -6360256#5 256994205#0 256994205#0.67 22917113#4 22917113#5 243349944#15 243349944#15.48 243349944#17 243349944#17.50 243349944#19 243349944#19.47 243349942#0 243349942#0.100 243349942#1 243349942#1.25 243349942#2 279467136#0 279467136#0.117 279467136#0.122 6463035#8 6463035#8.49 6349133#1 6349133#2 6349133#2.9 6349133#3 6414237#0 6414237#0.11 6414237#1 6414237#2 6414237#2.7 6414237#2.43 6414237#2.81 -243352868#3 -243352868#3.6 -243352868#1 -243352868#1.19 -6521828#4 6463035#14 -6369950#0 -336908262#6 -336908262#5 -336908262#5.80 -336908262#3 -336908262#3.49 -6472289#4 -6472289#3 -6472289#2 -6472289#1 -6447445#11 -22760521#2 -22760521#2.81 -22760521#2.121 428246847#0 428246847#0.8 428246847#0.22 6386110#0 6386110#0.16 6386110#0.25 6386110#0.55 -243349338#6 -243349338#6.14"/>
</vehicle>
<vehicle id = "veh13" type= "veh_passenger" depart="10815" >
<route edges =" -816616074#1 -816616074#1.10 -816616074#1.14 -816616074#1.119 428341734#4 428341734#4.8 428246439#0 428246439#0.14 428246438#0 428246438#0.8 428246440#0 428246440#0.62 800744529#0 800744529#0.7 800744529#0.52 800744529#0.89 825336588#0 825336588#0.7 96029553#0 96029553#0.9 96029553#0.15 96029553#0.59 8071900#0 8071900#0.7 8071900#0.18 8071900#0.88 -22917111#26 -22917111#26.7 -22917111#26.41 -22917111#26.121 -22917111#22 -22917111#22.9 -22917111#22.144 293775902#4 293775902#4.6 293775902#4.49 293775902#4.88 6440371#9 6440371#9.7 6440371#9.139 32135548#9 32135548#9.7 32135548#9.47 32135548#9.63 32135548#9.78 525497323#0 525497323#0.50 525497323#2 525497323#2.81 -481291488#2 -481291488#1 6464126#0 6464126#0.46 6464126#0.49 6464126#3 6464126#3.49 -801995081#0 243339793#4 243339793#5 243339793#6 243339793#6.50 243339793#6.74 -22917112 -185485118#1 6514312#0 6514312#0.70 185485132#0 185485132#0.7 481291012#2 481291012#2.49 481291012#5 481291012#5.49 481291012#7 481291012#7.20 428246846 428246846.12 428246846.24 428246846.37 926425193#0 926425193#0.8 926425193#0.43 926425193#0.84 926425193#0.95 926425193#1 926425193#1.12 926425193#1.24 926425193#1.34 -926425191#2 -6494970#6 -6494970#6.6 185485127#2 185485127#2.70 185485127#4 185485127#4.10 -6391682#2 -6391682#2.31 -6391682#2.42 -6391682#2.52 -6391682#2.64 6507813#0 -6472293#1 -6472293#1.180 -6472293#1.202 256996977#6 256996977#6.43 256996977#6.78 6501822#0 6501822#0.6 6507818#0 6396312#0 -185485127#10 6501822#3 6501822#4 6501822#5 6501822#5.157 8071924#5 259277920#0 259277920#0.29 259277920#0.47 259277920#1 259277920#2 259277920#2.23 32143377#0 32143377#0.40 243349941#3 -6336174#6 243349331#1 243349331#1.24 -6464130#5 -6464130#4 -6449970#10 -6449970#9 -359671040#1 -359671040#1.39 359671039#0 -6336174#1 -6336174#1.42 6501822#10 -6464126#18 -6464126#18.45 -795671505#1 -795671505#1.57 -795671505#1.102 -243339793#16 -243339793#16.49 -243339793#14 -243339793#14.51 6494975#1 6494975#1.9 6494975#2 243349338#5"/>
</vehicle>
<vehicle id = "veh14" type= "veh_passenger" depart="10815" >
<route edges =" 817434294 817434294.10 817434294.36 817434294.44 817434294.63 817434294.119 816616072#4 816616072#4.7 816616072#4.62 816616072#4.121 816616072#8 816616072#8.6 816616072#8.121 6346526#0 6346526#0.6 6346526#0.99 6346526#0.121 -337668916#3 -337668916#3.10 -337668916#3.49 -337668916#3.92 337668911#0 337668911#0.7 337668911#0.37 337668911#0.90 -171739214#9 -171739214#8 -171739214#7 -171739214#7.13 -171739214#7.36 -171739214#7.52 -171739214#7.90 752851600#4 752851600#4.6 752851600#4.8 752851600#4.28 752851600#4.34 752851600#4.35 752851600#4.38 752851600#4.44 752851600#4.97 6464391#3 6464391#3.6 6464391#3.75 6358524#6 6358524#6.5 6358524#6.55 6414229#12 6414229#13 6414229#13.35 6414229#13.70 896104580#0 896104580#0.9 158882517#0 158882517#1 -6346524#1 -6346524#0 171739214#13 -6411908#1 -6411908#1.18 -6411908#1.26 -6411908#0 -813722270#7 -813722270#7.11 -813722270#7.122 -813722270#4 -813722270#4.8 -813722270#4.54 -813722270#4.55 -813722270#4.87 -813722270#4.122 -816616073#1 -816616073#1.7 -569505974#1 -569505974#1.6 -569505974#1.33 -569505976#2 -569505976#2.9 -569505976#2.88 -569505976#2.115 -569505976#2.119 -569505978#1 -569505978#1.10 -569505979 -569505979.32 -569505979.79 -395714916#1 -395714916#1.12 -568043367 -568043367.41 -568043367.79 -293775903#2 -293775903#2.10 -293775903#2.37 -293775903#2.89 -293775903#2.118 893866060#0 893866060#0.10 893866060#0.69 893866060#0.91 893866060#4 893866060#4.6 893866060#4.48 893866060#4.89 893866060#8 893866060#8.7 893866060#8.65 893866060#8.89 893866064#0 893866064#0.7 893866064#0.122 293775902#0 293775902#0.7 293775902#0.52 293775902#0.90 -22917111#19 -22917111#19.8 -22917111#19.123 -22917111#19.125 -22917111#19.126 6464138#4 6464138#4.6 6464138#4.51 6464138#4.88 -6440371#5 -6440371#5.4 -6440371#5.6 -6440371#5.7 -6440371#5.119 -6440371#5.121 353690154#8 353690154#8.7 353690154#8.42 353690154#8.50 353690154#8.92 353690154#12 353690154#12.6 353690154#12.32 -6481166#9 -6481166#9.8 486874837#1 -6447971#9 -6447971#8 -6447971#7 -6447971#6 -6467507#3 -6481166#5 6507809#3 6507809#4 -6515975#5 -6515975#5.48 -6515975#3 -6515975#3.6 -6515975#3.44 -6515975#3.102 256996973#0 256996973#0.33 256996973#0.45 256996973#0.49 256996975#0 256996975#0.50 256996975#0.62 256996975#0.65 256996975#0.91 -6516509#20 -6516509#20.12 -6516509#20.14 -6516509#20.29 -6516509#20.33 -6516509#20.42 -6516509#20.45 -6516509#20.65 -6516509#20.78 -6516509#20.106 169917351#12 169917351#12.9 169917351#12.42 169917351#12.90 169917351#16 169917351#16.9 169917351#16.77 6452520#3 6452520#3.7 6452520#3.88 6452520#6 6452520#6.7 185485127#0 185485127#1 -6494970#4 -6494970#4.172 -6494970#2 -6494970#2.4 -6494970#2.100 6358721#0 6358721#0.9 -6415147#3 -6415147#2 6449462#3 6449462#3.7 6449462#3.50 6449462#3.60 6449462#3.72 6449462#3.87 795669782#0 795669782#0.54 -6414318#0 -6414318#0.76 -6414318#0.81 460418987#0 460418987#0.4 460418987#0.8 -6414273#1 -6414273#1.22 -460418992#4 -460418992#4.6 -460418992#4.125 -460418992#2 -460418992#2.50 -460418992#2.92 460418994#0 460418994#0.9 460418994#0.44 460418994#0.71 460418978#0 460418978#0.8 460418978#0.76 -795846818#1 -795846818#1.9 -795669782#3 6371720#2 6371720#3 157167355#0"/>
</vehicle>
<vehicle id = "veh15" type= "veh_passenger" depart="10815" >
<route edges =" -814326475#2 -814326475#2.9 -814326475#2.24 -814326475#2.41 -814326475#2.70 -814326475#2.91 -723013181#2 -723013181#2.9 -723013181#2.18 -723013181#2.38 -723013181#0 -332601014#3 -332601014#3.31 -332601014#3.36 -332601014#3.42 -428246436#1 -428246436#1.13 -428246436#1.22 -428246436#1.37 -808907363#3 -808907363#3.25 -808907363#3.35 -808907363#3.48 -808907363#3.53 -808907363#3.61 -797328240#3 -797328240#3.13 -797328240#3.26 -797328240#3.65 -797328240#3.93 -797328240#3.115 -337673342#5 -337673342#5.3 -337673342#5.9 -337673342#5.13 -337673342#5.21 -337673342#5.35 -337673342#5.72 -607691082#1 -607691082#0 -6475815#3 -6475815#3.2 -6475815#3.17 -6475815#3.46 -428089348#3 -428089348#3.15 -428089348#3.21 -428089348#3.28 -428341218#2 -428341218#2.3 -428341218#2.9 -65588069#1 -65588069#1.13 -428089351#1 -428089351#1.16 -428089352#1 -428089352#1.12 -428089350 -428089350.17 -428089350.43 -428227812#1 -428227812#1.9 -428227851#1 -428227851#1.5 -13726934#1 -13726934#1.5 -428227808 -428227847#1 -428227847#1.17 -749622503#15 -749622503#15.9 -749622503#15.31 -749622503#15.46 -749622503#15.51 -749622503#15.67 -749622503#15.85 -749622503#8 -749622503#8.7 -749622503#8.63 -749622503#8.83 -749622503#4 -749622503#4.84 -749622503#2 -749622503#2.9 -749622503#2.29 -749622503#2.64 -749622503#2.84 532166310#0 532166310#0.43 532166310#0.52 -428088883#1 -428088883#1.15 -428088897 -428088888 -737711647 -332223490#1 -332223490#1.19 -465971498#3 -465971498#3.2 -465971498#3.3 -465971498#3.5 -465971498#3.7 -465971498#3.10 -465971498#3.34 -465971498#3.84 369877037#0 369877037#0.9 369877037#0.83 537686684#0 537686684#0.43 537686684#0.53 -332223489#3 -332223489#3.4 -332223489#3.15 -332223489#3.17 -332223489#3.21 -401497115 -401497115.113 -401497115.170 -401497115.214 -428233435 -460425668 -460425668.5 -6457806#2 -6457806#2.21 -6457806#2.25 -6457806#2.30 -425646003#1 -425646003#1.13 -724644768 -724644768.35 6402586#0 6402586#0.1 6402586#0.4 6402586#0.6 6402586#0.12 6402586#0.35 6402586#0.59 6402586#4 6402586#4.72 6402586#4.75 6402586#4.77 6402586#4.80 208021560#0 208021560#0.2 208021560#0.5 208021560#0.8 208021560#0.11 208021560#0.30 208021560#0.39 208021560#0.44 208021560#0.106 208021560#0.125 208021560#0.133 208021560#0.136 -622519661 -622519661.9 739874554#0 739874554#0.10 739874554#0.18 739874554#0.37 739874554#0.62 332223487#0 332223487#0.16 332223487#0.62 332223487#0.98 332223488 332223488.25 332223488.48 332223488.65 332223488.68 332223488.88 347092907#0 347092907#0.3 347092907#0.13 347092907#0.19 347092907#0.26 347092907#0.31 347092907#0.38 347092907#0.40 347092907#0.45 347092907#0.51 332223494#0 332223494#0.18 332223494#0.35 332223494#0.144 332223494#0.171 6506833#15 6506833#15.8 6506833#15.10 6506833#15.35 49394452#5 49394452#5.6 49394452#5.186 965874293#2 965874293#2.45 760645196#0 760645196#0.8 760645196#0.188 -6388742#5 -6388742#5.6 -6388742#5.38 -6388742#2 -6388742#2.30 -6388742#2.38 965874292#7 965874292#7.8 965874292#7.41 965874292#10 965874292#10.35 965874292#12 965874292#12.8 965874292#12.69 158123767#0 158123767#0.10 158123767#0.11 158123767#0.50 158123767#0.74 158123767#0.86 158123767#0.115 158123767#0.122 158123767#0.134 158123767#0.139 158123767#0.166 795669781 795669781.52 795669781.56 460421481#1 460421481#1.61 460421481#1.85 256997441#0 256997441#0.11 256997441#0.18 256997441#0.62 14374224#4 14374224#4.44 14374224#4.54 14374224#4.84 14374224#4.122 -6414318#4 -157167355#0"/>
</vehicle>
<vehicle id = "veh16" type= "veh_passenger" depart="14420" >
<route edges =" -813722269#3 -813722269#3.7 -813722269#3.48 -813722269#3.84 -813722269#3.86 620762213#0 620762213#0.9 620762213#0.88 620762212#0 620762212#0.8 620762212#0.52 620762212#3 -6430729#5 -6430729#5.49 -6430729#5.89 813722270#5 813722270#5.7 813722270#5.118 171739207#0 171739207#0.49 171739207#2 171739207#2.46 6403874#0 337668916#10 337668916#11 337668916#11.20 337668916#11.35 8071899 6457203#0 -171739214#24 -171739214#24.39 -171739214#24.44 -171739214#24.63 -171739214#20 -171739214#17 -171739214#17.19 -171739214#17.44 160552467#6 160552467#6.15 160552467#6.20 160552467#6.50 160552467#8 158882517#4 -6403883#2 158882505#7 6469837#2 6469837#3 -158882511#8 -158882511#7 -158882511#7.20 -158882511#7.33 160552467#10 160552467#10.81 160552467#10.91 160552467#10.102 160552467#11 160552467#11.10 160552467#11.22 160552467#11.49 160552467#11.58 160552467#11.67 160552467#11.76 160552467#11.83 160552467#11.93 160552467#11.104 160552467#11.114 160552467#11.125 6323849#3 6323849#3.9 6323849#3.21 6323849#3.30 6323849#3.53 6323849#3.67 6323849#5 6323849#5.107 -6457203#15 -6457203#15.22 -6457203#14 -6457203#14.67 -6457203#13 -6457203#13.26 -6457203#11 -6457203#11.20 -6457203#11.36 -6457203#11.44 -6457203#11.89 -6457203#11.100 8111708#0 8111708#0.2 8111708#0.5 8111708#0.7 8111708#0.9 8111708#0.12 8111708#0.14 8111708#0.45 8111708#0.50 6505136#14 6505136#15 6368504#5 6368504#5.48 6368504#7 6368504#7.50 -6513783#8 -170683231#20 -170683231#20.51 -6381494#11 -6381494#11.68 -6381494#11.95 -37657905#4 -37657905#4.54 -37657905#2 -37657905#2.50 -37657905#2.91 -6464042#9 -6464042#9.6 -6464042#7 -6464042#7.121 -6464042#7.127 -6464042#7.144 -6464042#7.161 6384359#6 6384359#6.48 -6513783#4 -6513783#4.21 -6513783#4.23 -6513783#4.43 -6513783#4.80 -6463017#4 -6463017#4.49 -6463017#4.52 -6464042#1 -6464042#1.52 -292812445#4 -292812445#4.52 -292812445#2 -292812445#2.48 -292812445#2.63 8071898#0 8071898#0.8 8071898#0.10 8071898#0.26 8071898#0.40 6430729#11 6430729#11.51 -65588093#2 6343949#10 6343949#10.49 6343949#12 6343949#12.47 -525497324#3 620762218#5 620762218#5.18 620762218#5.80 -66558981#7 -66558981#7.65 -66558981#7.83 -66558981#7.105 -66558981#7.123 243349944#6 243349944#7 243349944#8 243349944#9 -396055523#8 -396055523#8.8 243349945#0 243349945#0.6 243349945#0.83 243349945#3 243349945#3.5 243349945#3.45 243349945#3.49 -22917113#6 -22917113#5 6447445#5 6447445#5.47 6447445#7 6447445#7.46 -6494975#6 -6494975#6.81 256994205#3 428246847#0 428246847#0.8 428246847#0.22 6386110#0 6386110#0.16 6386110#0.25 6386110#0.55 -243349338#6 -243349338#6.14"/>
</vehicle>
<vehicle id = "veh17" type= "veh_passenger" depart="14420" >
<route edges =" -816616074#1 -816616074#1.10 -816616074#1.14 -816616074#1.119 428341734#4 428341734#4.8 428246439#0 428246439#0.14 428246438#0 428246438#0.8 428246440#0 428246440#0.62 800744530#0 800744530#0.11 800744530#0.45 800744530#0.57 800744530#0.111 800744530#0.121 620762212#0 620762212#0.8 620762212#0.52 6343949#6 6343949#7 8071898#3 620762214 332092195#0 332092195#0.9 332092195#0.74 -22917111#30 -22917111#30.9 -22917111#30.50 -22917111#30.96 -22917111#26 -22917111#26.7 -22917111#26.41 -22917111#26.121 -22917111#22 -22917111#22.9 -22917111#22.144 293775902#4 293775902#4.6 293775902#4.49 293775902#4.88 293775902#8 293775902#8.6 293775902#8.49 293775902#8.91 6512920#8 6512920#8.4 6512920#8.74 6512920#8.89 6512920#8.101 6512920#8.139 525497323#0 525497323#0.50 -6481166#12 -6481166#11 -6481166#11.122 -6481166#11.125 6464138#14 -481291488#1 6464126#0 6464126#0.46 6464126#0.49 -460419011#1 -460419011#1.97 243339793#2 243339793#2.49 -801995082 481291014#0 481291014#0.53 353690153#0 353690153#0.8 353690153#0.25 353690153#0.87 6360256#0 6360256#0.104 6360256#1 6360256#1.7 6464126#7 6464126#7.50 6464126#9 6464126#9.46 6464126#11 6464126#11.50 6494975#2 243349338#5"/>
</vehicle>
<vehicle id = "veh18" type= "veh_passenger" depart="14420" >
<route edges =" 817434294 817434294.10 817434294.36 817434294.44 817434294.63 817434294.119 6343949#0 6343949#0.7 6343949#0.86 6343949#3 6343949#3.9 6343949#3.49 -620762212#2 -620762212#2.76 -620762212#2.120 -800744530#5 -800744530#5.9 -800744530#5.19 -800744530#5.73 -800744530#5.84 -800744530#5.118 -800744528#1 -800744528#1.8 -800744528#1.16 -800744528#1.37 -800744528#1.72 -337673339 -337673337 185882764 185882764.13 185882764.14 185882765 185882765.16 185882765.26 185882765.30 185882765.31 395933841 164418944#0 164418944#0.13 164418944#0.18 164418944#0.32 164418944#0.39 -353690148#9 -353690148#9.7 -353690148#9.10 -353690148#9.12 -353690148#9.13 -353690148#9.38 -353690148#9.143 893866065#7 893866065#7.7 893866065#7.48 893866065#7.90 -893866064#2 -893866064#2.7 -893866064#2.122 6464138#0 6464138#0.7 6464138#0.53 6464138#0.92 -22917111#16 -22917111#16.4 -22917111#16.5 -22917111#16.7 -22917111#16.120 -22917111#16.122 -22917111#13 -22917111#13.8 -22917111#13.10 -22917111#13.79 -22917111#13.80 -22917111#13.98 -22917111#13.123 -22917111#10 -22917111#10.9 -22917111#10.32 -22917111#10.71 -22917111#10.74 -22917111#10.76 -22917111#10.93 -22917111#10.155 -22917111#10.196 353690160#3 353690160#3.6 353690160#3.90 179552384#0 179552384#0.7 179552384#0.28 179552384#0.44 179552384#0.49 179552384#0.89 465971499#0 465971499#0.6 6481166#7 6481166#7.43 486874837#1 486874837#2 486874837#2.47 460419013#0 460419013#0.51 -6380913#14 -6380913#13 -6380913#12 460419008#2 460419008#2.37 460419008#2.41 460419008#2.47 460419008#2.65 6516509#0 6516509#0.7 6516509#0.30 6516509#0.46 6516509#0.66 6516509#0.90 6516509#0.105 6516509#0.109 -6463536#1 -6463536#1.10 -6463536#1.11 -6463536#1.22 -6463536#1.32 -6463536#1.39 -6463536#1.43 -6463536#1.50 -6463536#1.60 -6463536#1.69 -6463532#3 -6463532#3.45 -6515975#7 -6515975#6 -6515975#5 -6515975#5.48 169917351#7 169917351#7.49 6380913#4 6507809#7 6507809#7.46 6507809#7.87 6507809#10 6507809#10.8 6507809#10.91 -6360239#7 -6360239#7.6 -6360239#7.47 -6360239#7.86 -6360239#3 -6360239#3.6 -6360239#3.69 -6360239#3.102 256996976#3 256996976#3.7 256996976#3.76 6449462#0 6449462#0.9 6449462#0.46 6449462#3 6449462#3.7 6449462#3.50 6449462#3.60 6449462#3.72 6449462#3.87 795669782#0 795669782#0.54 795669782#2 6371720#2 6371720#3 157167355#0"/>
</vehicle>
<vehicle id = "veh19" type= "veh_passenger" depart="14420" >
<route edges =" -814326475#2 -814326475#2.9 -814326475#2.24 -814326475#2.41 -814326475#2.70 -814326475#2.91 -6456052#5 -6456052#5.10 -6456052#5.36 -6456052#5.120 -6456052#1 -6456052#1.10 -6456052#1.62 -607691082#1 6501701#2 6501701#2.50 6501701#2.60 -6475815#4 -6475815#3 -6475815#3.2 -6475815#3.17 -6475815#3.46 -428089348#3 -428089348#3.15 -428089348#3.21 -428089348#3.28 -353690151#5 -353690151#5.11 -353690151#5.12 -353690151#5.26 -353690151#5.83 -353690151#5.102 -353690151#2 -353690151#2.9 -353690151#2.22 -353690151#2.24 -353690151#2.39 -353690151#2.72 -353690151#2.92 -433500388#1 -433500388#1.11 -433500388#1.46 -433500388#1.73 -433500388#1.113 -433500388#1.115 -428088900#1 -428088900#1.10 -428088894#1 -428088894#1.25 -532166310#2 -532166310#2.3 -532166310#2.13 -369877039 -369877039.36 -369877039.55 -428088903#1 -428088903#1.15 428231560#0 428231560#0.10 338073582#0 338073582#0.20 -6502980#13 -6502980#13.10 -6502980#13.20 -6502980#13.36 -6502980#13.49 -6502980#13.55 -6502980#13.82 -6502980#7 -6502980#7.6 -6502980#7.48 -6502980#7.86 -6502980#3 -6502980#3.7 -6502980#3.69 -6502980#3.84 347094711#0 347094711#0.7 347094711#0.20 347094711#0.38 347094711#0.50 347094711#0.69 347094711#0.73 347094711#0.74 347094712#0 347094712#0.21 -332223489#3 -332223489#3.4 -332223489#3.15 -332223489#3.17 -332223489#3.21 -401497115 -401497115.113 -401497115.170 -401497115.214 -537677478#2 -537677478#2.10 -537677478#2.11 -537677478#2.28 -537677478#2.36 -6456046#3 -6456046#3.6 -6456046#3.36 -6456046#3.42 -6456046#3.49 -6456046#3.56 -6456046#3.62 -6456046#3.66 -6456046#3.71 -6456046#3.76 -6456046#3.92 -6456046#3.102 -6456046#3.109 -6456046#3.112 6402586#0 6402586#0.1 6402586#0.4 6402586#0.6 6402586#0.12 6402586#0.35 6402586#0.59 6415152 6415152.4 6415152.15 6415152.33 6415152.51 6415152.63 6415152.76 6415152.94 6415152.108 6415152.133 6415152.155 858621141#0 858621141#0.35 858621141#0.40 622519661 622519661.8 347092914#0 347092914#0.10 347092914#0.14 347092914#0.24 347092914#0.54 347092914#0.75 347092914#0.87 893872038 893872038.9 893872038.14 893872038.97 893872038.123 893872038.129 893872038.134 6405076#3 6405076#3.4 6405076#3.8 6405076#3.14 6405076#3.20 6405076#3.50 6405076#3.68 6405076#3.84 6405076#6 6405076#6.6 6405076#6.21 6405076#6.26 6405076#6.33 6405076#6.44 6405076#6.49 6405076#6.65 6405076#6.68 6405076#6.71 6405076#6.77 6405076#6.79 6405076#6.82 6405076#6.87 6476327#0 6476327#0.4 6476327#0.9 6476327#0.63 6476327#0.102 6476327#4 6476327#4.7 6476327#4.35 6476327#4.86 893868549#12 893868549#12.7 893868549#12.90 -893868550#2 -893868550#2.7 -893868550#2.86 901477545#0 901477545#0.8 901477545#0.89 901477545#4 901477545#4.7 901477545#4.69 -6440364#3 -6440364#3.8 -6440364#3.13 -6440364#3.85 -6440364#3.103 256996974#6 256996974#6.9 256996974#6.21 256996974#6.40 256996974#6.89 243338978#0 243338978#0.9 243338978#0.58 243338978#0.71 -22917663#18 -22917663#18.20 -22917663#18.54 -22917663#18.91 -22917663#14 -22917663#14.8 -22917663#14.71 -22917663#14.88 6506833#5 6506833#5.9 6506833#5.46 6506833#5.50 6506833#5.72 6506833#5.85 6506833#11 6506833#11.9 6506833#11.45 6506833#11.74 6506833#11.79 6506833#15 6506833#15.8 6506833#15.10 6506833#15.35 6506833#18 6506833#18.45 6506833#20 6506833#20.8 6506833#20.47 6506833#20.85 -263712957#12 -263712957#12.8 -263712957#12.77 792010743#2 792010743#2.11 792010743#2.16 573669451#0 573669451#0.28 573669451#0.63 573669451#0.78 573669451#0.83 862387686#0 862387686#0.13 862387686#0.22 -481291008#2 -481291008#2.2 -481291008#2.11 -481291008#2.24 -263721997#5 -263721997#5.3 -263721997#5.15 -263721997#5.48 -263721997#5.83 -263721997#5.84 -263721997#5.86 658263993#0 658263993#0.7 658263993#0.52 658263993#0.57 658263993#0.90 658263993#0.161 22917669#11 22917669#11.7 22917669#13 22917669#13.1 22917669#13.41 22917669#13.75 -6388742#24 -6388742#24.5 -6388742#24.72 -6388742#21 -6388742#21.6 -6388742#21.71 -8044210#1 -8044210#1.9 -8044210#1.90 -8044210#1.95 6445481#0 6445481#0.3 6445481#0.6 6445481#0.68 6445481#0.72 -6371699#12 -6371699#12.3 -6371699#12.7 -6371699#12.71 -6371699#12.94 -6371699#12.106 -6388742#15 -6388742#15.8 -6388742#15.46 -6388742#15.84 263712958#0 263712958#0.8 263712958#0.45 263712958#0.101 263712958#0.114 263712958#0.117 263712958#0.119 6445479#0 6445479#0.4 6445479#0.8 6445479#0.186 965874292#10 965874292#10.35 965874292#12 965874292#12.8 965874292#12.69 158123767#0 158123767#0.10 158123767#0.11 158123767#0.50 158123767#0.74 158123767#0.86 158123767#0.115 158123767#0.122 158123767#0.134 158123767#0.139 158123767#0.166 795669781 795669781.52 795669781.56 6497081#6 6497081#6.44 6414318#3 -157167355#0"/>
</vehicle>
<vehicle id = "veh20" type= "veh_passenger" depart="18025" >
<route edges =" -813722269#3 -813722269#3.7 -813722269#3.48 -813722269#3.84 -813722269#3.86 620762213#0 620762213#0.9 620762213#0.88 57883609#0 57883609#0.6 57883609#0.57 57883609#3 57883609#3.43 57883609#3.52 57883609#3.60 57883609#3.80 -8071898#3 -8071898#2 6430729#11 6430729#11.51 65588093#3 6505136#0 6505136#0.18 6505136#0.27 6505136#0.73 6505136#0.87 6505136#0.118 6463017#0 6463017#0.48 6463017#2 6463017#2.44 6463017#2.48 -6513783#1 -6513783#1.10 962517344 962517344.33 -6381494#0 292812445#9 292812445#9.49 6386837#0 6386837#1 6386837#2 6384359#12 6384359#12.14 6384359#12.24 6384359#12.93 -6444677 481291015#0 481291015#0.20 481291015#0.59 -343521145#3 -343521145#3.32 -343521145#3.66 -343521145#3.101 -343521145#3.142 -343521145#3.155 337739267#0 337739267#1 -481291488#10 -481291488#10.44 -481291488#10.61 -481291488#10.85 -481291488#10.132 -481291488#10.142 243349944#7 460419011#4 337739269#1 337739269#1.30 -801995081#6 -801995081#6.9 243349944#9 243349944#10 243349944#10.7 243349944#10.84 -6360256#7 -6360256#7.5 6447445#3 6447445#3.51 -22917113#4 -22917113#3 243349338#2 185485132#5 185485132#5.98 185485132#7 185485132#7.51 185485132#9 185485132#10 185485132#11 185485132#11.115 805658294#0 805658294#0.38 805658294#0.52 6494975#10 6494975#10.11 6494975#10.19 805680044#10 336908262#0 336908262#0.48 -6472289#4 805658294#6 805658294#6.47 805658294#8 805658294#9 805658294#9.71 -532125609#3 243349945#19 352434874#3 808266757#1 263665040#4 263665040#4.7 263665040#4.17 263665040#4.26 263665040#4.35 263665040#4.44 263665040#4.53 263665040#4.62 263665040#4.71 263665040#4.80 6477474#0 6477474#0.14 6477474#0.21 6511939#0 6511939#0.25 6511939#0.34 6511939#0.44 6511939#0.53 6511939#0.62 6511939#0.72 6511939#0.81 6511939#0.90 6511939#0.100 6472195#0 6472195#0.10 6472195#0.14 6472195#0.18 6472195#0.42 6472195#0.49 6472195#0.55 6472195#0.56 6472195#0.62 6472195#0.71 6463022#4 6463022#4.52 6463022#4.58 6463022#4.66 6463022#5 6463022#5.5 6463022#5.11 6463022#5.15 6463022#5.29 -6341490#1 -6341490#1.56 -6341490#1.92 -6341490#1.127 -6341490#1.160 -337698847#4 -337698847#4.8 -337698847#4.17 -337698847#4.27 -337698847#4.37 -337698847#3 -337698847#3.12 -337698847#3.24 -337698847#3.38 -337698847#2 -337698847#2.101 -337698847#2.115 -6343958#1 -6468802#4 -6468802#4.71 -6468802#4.126 -6468802#4.199 -6468802#4.202 -6468802#4.205 -6468802#4.210 -6468802#4.250 -6468802#4.257 -6468802#4.265 -6447445#27 -6447445#27.41 -6447445#27.75 -6447445#25 -6447445#25.7 -6447445#25.41 6409640#11 6409640#12 -243349945#23 -243349945#23.41 -243349941#11 -243349944#29 -243349944#28 -243349944#27 -532125609#1 6447445#16 -352434874#0 -263665039 -263665039.32 -263665039.58 -263665039.72 -6449970#12 -6449970#11 -6464130#3 -6464130#3.41 -6464130#1 -6464130#1.43 6501822#12 160624556 160624556.10 438895607 438895607.119 160624558#0 160624558#0.9 160624558#0.16 -243349944#24 -243349944#24.50 -243349944#22 -243349944#22.50 -22760521#3 -6447445#10 -6447445#10.48 -6494975#6 -6494975#6.81 256994205#3 428246847#0 428246847#0.8 428246847#0.22 6386110#0 6386110#0.16 6386110#0.25 6386110#0.55 -243349338#6 -243349338#6.14"/>
</vehicle>
<vehicle id = "veh21" type= "veh_passenger" depart="18025" >
<route edges =" -816616074#1 -816616074#1.10 -816616074#1.14 -816616074#1.119 428341734#4 428341734#4.8 428246439#0 428246439#0.14 428246438#0 428246438#0.8 428246440#0 428246440#0.62 800744529#0 800744529#0.7 800744529#0.52 800744529#0.89 -349901821 349901822#0 349901822#0.9 96029553#0 96029553#0.9 96029553#0.15 96029553#0.59 -893866066#2 -893866066#2.7 -893866066#2.122 -353690150#2 -353690150#2.8 -353690150#2.144 293775902#0 293775902#0.7 293775902#0.52 293775902#0.90 293775902#4 293775902#4.6 293775902#4.49 293775902#4.88 293775902#8 293775902#8.6 293775902#8.49 293775902#8.91 293775902#12 293775902#12.3 293775902#12.50 6481166#12 525497323#2 525497323#2.81 40416132#0 40416132#0.19 40416132#1 40416132#1.90 256994206#0 256994206#0.8 256994206#0.43 256994206#0.60 460419028#0 460419028#0.11 460419028#0.49 460419028#0.79 460419028#0.95 460419028#3 6464126#6 6464126#7 6464126#7.50 6464126#9 6464126#9.46 185485132#4 243349338#3 243349338#3.49 243349338#5"/>
</vehicle>
<vehicle id = "veh22" type= "veh_passenger" depart="18025" >
<route edges =" 817434294 817434294.10 817434294.36 817434294.44 817434294.63 817434294.119 6343949#0 6343949#0.7 6343949#0.86 6343949#3 6343949#3.9 6343949#3.49 6343949#6 -65588100#1 -65588100#1.65 -57883609#2 -57883609#2.42 -57883609#2.93 -800744530#5 -800744530#5.9 -800744530#5.19 -800744530#5.73 -800744530#5.84 -800744530#5.118 -800744528#1 -800744528#1.8 -800744528#1.16 -800744528#1.37 -800744528#1.72 826314456#0 826314456#0.9 826314456#0.50 826314456#0.96 826314456#0.103 -6476313#2 -6476313#2.11 -6476313#2.29 -6476313#2.98 -6476313#2.99 -6476313#2.103 -6476313#2.107 -164418944#3 -164418944#3.9 -164418944#3.15 -164418944#3.30 -164418944#3.35 -395933841 -243338979#28 -243338979#28.13 -243338979#28.49 -243338979#28.142 -243338979#28.143 -243338979#25 -243338979#25.8 -243338979#25.64 -243338979#25.77 -243338979#25.120 -243338979#20 -243338979#20.7 -243338979#20.121 -243338979#17 -243338979#17.7 -243338979#17.60 -243338979#17.109 -243338979#17.118 -243338979#17.120 -243338979#12 -243338979#12.10 -243338979#12.11 -243338979#12.62 -243338979#9 -243338979#9.5 -243338979#9.31 -243338979#6 -243338979#6.31 -243338979#6.61 486844942#0 486844942#0.5 486844942#0.15 486844942#0.87 6476327#16 6476327#16.9 6476327#16.22 6476327#16.41 6476327#16.196 353690147#0 353690147#0.6 353690147#0.19 353690147#0.121 893866056#0 893866056#0.8 893866056#0.64 893866056#0.88 353690154#0 353690154#0.7 353690154#0.49 353690154#0.90 353690154#4 353690154#4.6 353690154#4.49 353690154#4.54 353690154#4.87 -6440371#2 -6440371#2.9 -6440371#2.11 -6440371#2.121 -6440371#2.122 460419029#9 460419029#9.7 460419029#9.45 486874837#0 486874837#1 6447971#10 6447971#10.101 243339793#0 243339793#0.48 -460419011#0 -460419011#0.11 -460419014 -460419014.67 6425689#2 6425689#2.48 -6380913#13 -6380913#12 -460419008#1 -460419008#1.44 -6515975#8 -6463532#1 -6463532#1.50 -6447971#6 -6447971#5 -6447971#4 169917351#6 169917351#7 169917351#7.49 169917351#9 169917351#9.48 169917351#9.87 -6516509#14 -6516509#14.5 -6516509#14.58 -6516509#14.86 6507809#10 6507809#10.8 6507809#10.91 6507809#13 6507809#13.9 6507809#13.77 -6452520#5 -6452520#5.4 -6452520#5.85 169917351#19 169917351#19.6 169917351#19.71 -6523501#2 -6523501#2.5 -6523501#2.101 460421482#3 460421482#3.8 460421482#3.48 460421482#3.55 460421482#3.72 6358721#0 6358721#0.9 6415147#4 -428247193#2 -428247193#2.56 -428247193#2.61 -428247193#2.96 -428247193#2.117 -428247193#2.121 -428247193#2.140 -428247193#2.154 -428247195 -428247195.5 -460421481#2 -460421481#2.8 -460421481#2.32 6497081#6 6497081#6.44 6497081#8 6497081#9 6497081#9.126 369455641#1 369455641#1.28 369455641#1.78 512126022#0 512126022#0.11 512126022#0.46 185483738#4 185483738#4.14 185483738#6 185483738#6.71 185483738#6.123 6496652#2 6496652#2.75 6496652#4 6496652#4.7 6496652#6 -22917678#2 -22917678#2.8 -22917678#2.134 -6485999#2 -6351337#0 -6467368#0 -185483738#2 -185483738#2.93 -6371720#5 -6371720#5.41 157167355#0"/>
</vehicle>
<vehicle id = "veh23" type= "veh_passenger" depart="18025" >
<route edges =" -814326475#2 -814326475#2.9 -814326475#2.24 -814326475#2.41 -814326475#2.70 -814326475#2.91 -6456052#5 -6456052#5.10 -6456052#5.36 -6456052#5.120 -6456052#1 -6456052#1.10 -6456052#1.62 -607691082#1 -607691082#0 -6475815#3 -6475815#3.2 -6475815#3.17 -6475815#3.46 -428089348#3 -428089348#3.15 -428089348#3.21 -428089348#3.28 -428341218#2 -428341218#2.3 -428341218#2.9 -65588069#1 -65588069#1.13 -428089351#1 -428089351#1.16 293753570#3 293753570#3.10 293753570#3.31 293753570#3.45 293753570#3.54 293753570#3.85 293753570#6 293753570#6.10 293753570#6.38 293753570#6.84 293753570#6.86 -368560864#2 -368560864#2.7 -368560864#2.11 -368560864#2.84 -368560864#2.86 -368560864#2.88 -6462029#17 -6462029#17.2 -6462029#17.5 -6462029#17.7 -6462029#17.45 -6462029#17.88 -6462029#13 -6462029#13.9 -6462029#13.48 -6462029#13.90 -749622503#25 -749622503#25.7 -749622503#25.85 -759056694#10 -759056694#10.10 -759056694#10.50 -759056694#10.73 -759056694#10.89 -6511397#7 -6511397#7.8 -6511397#7.39 -6511397#7.86 -22927969#6 -22927969#6.8 -22927969#6.48 -22927969#6.90 -749622503#18 -749622503#18.7 -749622503#18.55 -749622503#18.81 -428227803#1 -428227803#1.9 -428227860 -428227860.14 -428227828 -428227842 -428227822#1 -428227822#1.17 -428227833#1 -428227833#1.13 -428227838 -428227854#1 -428227854#1.5 -428227818 -428227865#1 -428227865#1.18 -428227899#1 -428227899#1.9 -428227850#1 -428227850#1.24 -428227893#1 -428227893#1.17 -428227877#1 -428227877#1.10 -428227882#1 -428227882#1.23 -428227887#1 -428227887#1.18 -8111067#14 -8111067#14.9 -8111067#14.17 -8111067#14.35 -8111067#14.57 -8111067#14.84 706262355#0 706262355#0.47 706262355#0.82 706262355#0.89 -169511255#12 -169511255#12.10 -169511255#12.35 -169511255#12.49 -169511255#12.84 -6394322#7 -6394322#7.9 -6394322#7.12 -6394322#7.45 -6394322#7.94 -8111067#5 -8111067#5.7 -8111067#5.83 -8111067#2 -8111067#2.7 -8111067#2.83 51817330#3 51817330#3.5 51817330#3.8 51817330#3.26 51817330#3.42 51817330#3.89 -788766516#2 -788766516#2.11 -788766516#2.49 -788766516#2.78 -788766516#2.88 338073583#0 338073583#0.9 338073583#0.24 338073583#0.78 338073583#0.88 338073583#4 338073583#4.8 338073583#4.15 338073583#4.79 338073583#4.84 338073583#7 338073583#7.8 338073583#7.14 338073583#7.85 263672156#3 263672156#3.7 263672156#3.57 263672156#3.86 369877031#0 369877031#0.10 369877031#0.31 369877031#0.46 369877031#0.88 -749622503#8 -749622503#8.7 -749622503#8.63 -749622503#8.83 -749622503#4 -749622503#4.84 -749622503#2 -749622503#2.9 -749622503#2.29 -749622503#2.64 -749622503#2.84 -6522514#4 -6522514#4.7 -6522514#4.36 -6522514#4.61 -6522514#4.66 -6522514#4.67 -6522514#4.73 -332223490#1 -332223490#1.19 -428088887#1 -428088887#1.12 -428088892 -428088886#1 -428088886#1.24 -428088886#1.35 -428088886#1.45 6463530#0 6463530#0.2 6463530#0.8 6463530#0.13 6463530#0.54 6463530#0.95 6463530#6 6463530#6.6 6463530#6.49 6463530#6.89 -6343878#8 -6343878#8.7 -6343878#8.85 347094714#4 347094714#4.6 347094714#4.48 347094714#4.87 -6435230#5 -6435230#5.17 -893868549#6 -893868549#6.12 -893868549#6.14 -893868549#6.50 -893868549#6.94 -893868549#2 -893868549#2.10 -893868549#2.49 -893868549#2.89 -893868549#2.91 -893868549#2.93 -893868549#2.94 6456044#0 6456044#0.1 6456044#0.2 6456044#0.3 6456044#0.4 6456044#0.6 6456044#0.84 6467490#0 6467490#0.7 6467490#0.49 6467490#0.78 -401497115 -401497115.113 -401497115.170 -401497115.214 -428233435 -460425668 -460425668.5 425646007#0 425646007#0.10 425646007#0.17 425646007#0.20 425646007#0.22 425646007#0.27 425646003#0 425646003#0.15 6465162#0 6465162#0.2 6465162#0.6 6465162#0.11 6465162#0.36 428233434 428233434.31 428233434.58 332223487#0 332223487#0.16 332223487#0.62 332223487#0.98 893872038 893872038.9 893872038.14 893872038.97 893872038.123 893872038.129 893872038.134 347092915#0 347092915#0.8 347092915#0.32 347092915#0.44 347092915#0.89 347092915#0.182 347092915#6 347092915#6.6 347092915#6.44 347092915#6.87 347092915#10 347092915#10.9 347092915#10.68 347092915#10.90 243338978#7 243338978#7.8 243338978#7.38 243338978#7.45 243338978#7.74 965874293#0 965874293#0.9 965874293#0.40 49394452#8 49394452#8.8 49394452#8.188 -6388742#2 -6388742#2.30 -6388742#2.38 965874292#7 965874292#7.8 965874292#7.41 965874292#10 965874292#10.35 965874292#12 965874292#12.8 965874292#12.69 158123767#0 158123767#0.10 158123767#0.11 158123767#0.50 158123767#0.74 158123767#0.86 158123767#0.115 158123767#0.122 158123767#0.134 158123767#0.139 158123767#0.166 795669782#0 795669782#0.54 6414318#1 6414318#1.86 6414318#3 -157167355#0"/>
</vehicle>
<vehicle id = "veh24" type= "veh_passenger" depart="21630" >
<route edges =" -813722269#3 -813722269#3.7 -813722269#3.48 -813722269#3.84 -813722269#3.86 569505974#0 569505974#0.10 569505974#0.37 816616073#0 816616073#0.78 6343949#3 6343949#3.9 6343949#3.49 620762212#3 6430729#6 6430729#6.47 6430729#6.48 -65588100#4 -65588100#4.73 -65588100#4.110 -65588100#1 -65588100#1.65 -826314455#3 -826314455#3.64 -826314455#3.71 -826314455#3.76 -826314455#3.90 -826314455#3.118 -349901821 349901822#0 349901822#0.9 349901822#2 349901822#2.21 -620762214 179551719 179551719.37 179551719.46 179551719.51 179551719.88 179551719.93 179551719.97 739843348#0 739843348#0.4 739843348#0.9 620762218#0 620762218#0.55 620762218#0.66 620762218#0.68 620762218#0.81 -6440348#7 -6440348#7.9 -6440348#5 -6440348#5.15 -6440348#5.21 -6440348#5.35 -6440348#5.44 -6440348#5.122 8071900#8 8071900#8.6 8071900#8.7 8071900#8.49 8071900#8.53 525497324#1 525497324#2 620762218#5 620762218#5.18 620762218#5.80 620762224#0 -6430729#18 -6430729#18.53 525497324#8 6513783#0 6513783#1 6513783#1.64 6463017#5 -6381494#1 -6381494#0 292812445#9 292812445#9.49 337739268 337739268.124 337739267#0 337739267#1 337739271#0 337739271#0.10 337739271#0.13 337739271#1 337739271#1.6 337739269#0 337739269#1 337739269#1.30 481291013#0 481291013#0.16 481291013#0.30 481291013#0.70 481291013#0.75 481291013#0.79 481291013#0.109 481291013#0.113 -481291015#1 -481291015#1.3 -481291015#1.42 6444677 8071925#0 8071925#0.9 8071925#0.55 8071925#2 8071925#2.36 8071925#2.74 465799093#0 465799093#0.8 465799093#0.46 465799093#0.91 65588097#0 65588097#0.9 6384373#5 6384373#5.40 6384373#5.50 6384373#5.90 -6448612#5 -6448612#5.30 -6448612#3 -6448612#3.16 6463035#3 -6495801#0 -805680044#7 -805680044#7.48 -805680044#7.91 -805680044#4 -805680044#4.8 -805680044#4.49 -805680044#4.92 -6360256#15 -6360256#15.7 -6360256#15.133 361784407#0 361784407#0.8 361784407#0.38 361784407#0.53 -22917113#7 -22917113#7.10 -22917113#7.19 243349945#6 243349945#6.48 243349945#6.88 -185485132#10 243349944#17 243349944#17.50 6494975#8 243349945#11 243349945#11.47 -243349942#0 -243349942#0.28 -22760521#3 -22760521#2 -22760521#2.81 -22760521#2.121 428246847#0 428246847#0.8 428246847#0.22 6386110#0 6386110#0.16 6386110#0.25 6386110#0.55 -243349338#6 -243349338#6.14"/>
</vehicle>
<vehicle id = "veh25" type= "veh_passenger" depart="21630" >
<route edges =" -816616074#1 -816616074#1.10 -816616074#1.14 -816616074#1.119 428341734#4 428341734#4.8 428246439#0 428246439#0.14 428246438#0 428246438#0.8 428246440#0 428246440#0.62 -800744528#1 -800744528#1.8 -800744528#1.16 -800744528#1.37 -800744528#1.72 826314456#0 826314456#0.9 826314456#0.50 826314456#0.96 826314456#0.103 -6476313#2 -6476313#2.11 -6476313#2.29 -6476313#2.98 -6476313#2.99 -6476313#2.103 -6476313#2.107 164418944#4 164418944#4.7 164418944#4.8 164418944#4.29 164418944#4.51 164418944#4.95 32135548#0 32135548#0.6 32135548#0.48 32135548#0.53 32135548#0.64 32135548#0.89 32135548#0.90 32135548#5 32135548#5.7 32135548#5.49 32135548#5.88 32135548#9 32135548#9.7 32135548#9.47 32135548#9.63 32135548#9.78 525497323#0 525497323#0.50 66558981#0 66558981#0.29 66558981#0.132 243349944#6 -481291488#4 -481291488#4.47 40416132#0 40416132#0.19 40416132#1 40416132#1.90 -801995081#2 -801995081#2.109 -801995081#0 243339793#4 -460419028#4 6464126#6 6360256#2 6360256#2.128 243349338#1 243349338#2 243349338#3 243349338#3.49 243349338#5"/>
</vehicle>
<vehicle id = "veh26" type= "veh_passenger" depart="21630" >
<route edges =" 817434294 817434294.10 817434294.36 817434294.44 817434294.63 817434294.119 816616072#4 816616072#4.7 816616072#4.62 816616072#4.121 6430729#0 6430729#0.7 6430729#0.86 6430729#3 6430729#3.9 6430729#3.48 -620762212#3 -620762212#2 -620762212#2.76 -620762212#2.120 -800744530#5 -800744530#5.9 -800744530#5.19 -800744530#5.73 -800744530#5.84 -800744530#5.118 -428246440#1 -428246440#1.7 -428246438#1 -428246438#1.17 -569505978#1 -569505978#1.10 -569505979 -569505979.32 -569505979.79 -395714916#1 -395714916#1.12 -568043367 -568043367.41 -568043367.79 893866065#0 893866065#0.10 893866065#0.66 893866065#0.92 893866065#3 893866065#3.6 893866065#3.48 893866065#3.88 -353690148#6 -353690148#6.8 -353690148#6.122 -353690148#3 -353690148#3.7 -353690148#3.59 -353690148#3.121 893866056#0 893866056#0.8 893866056#0.64 893866056#0.88 893866059#0 893866059#0.8 893866059#0.9 893866059#0.122 6464138#0 6464138#0.7 6464138#0.53 6464138#0.92 6464138#4 6464138#4.6 6464138#4.51 6464138#4.88 6464138#8 6464138#8.7 6464138#8.49 6464138#8.88 6464138#12 6464138#12.51 -6481166#10 -6481166#10.6 -6481166#10.8 -6481166#10.120 353690154#15 353690154#15.50 -6447971#10 -6447971#10.11 -486874837#1 -6481166#8 -6481166#8.162 -6481166#6 6467507#3 -6447971#5 6507809#4 6507809#5 6507809#5.51 -6380913#4 -6380913#3 -6380913#3.7 -6380913#3.66 -6380913#3.103 6385341#0 6385341#0.19 6385341#0.20 6385341#0.34 6385341#0.47 6385341#0.50 6385341#0.54 6385341#0.58 6385341#0.73 6385341#0.78 6385341#0.81 6385341#0.84 6385341#0.87 6385341#0.126 6385341#0.138 6384260#2 6384260#3 6384260#3.54 -6487445#4 -6487445#4.15 -6487445#4.55 6415147#0 6415147#0.61 -6449462#2 -6449462#2.42 -6449462#2.79 460421482#0 460421482#0.8 460421482#0.73 6497081#0 6497081#0.8 6497081#2 6497081#2.38 6497081#2.47 6497081#2.53 6497081#2.60 6497081#2.67 6497081#2.70 6497081#2.74 6497081#2.81 6497081#2.120 6497081#6 6497081#6.44 6497081#8 -6371720#2 -6371720#1 -6371720#1.81 460418987#2 460418987#3 460418987#3.91 22917667#0 22917667#0.7 22917667#0.103 -22917670#6 -22917670#6.8 -22917670#6.44 -22917670#6.72 -337742188#8 -337742188#8.6 -337742188#8.83 -337742188#8.106 -337742188#8.123 -337742188#8.140 -337742188#8.159 22917673#2 22917673#2.9 22917673#2.36 22917673#2.81 22917673#5 22917673#5.15 22917673#5.76 -795846818#7 -795846818#7.6 -795846818#7.174 -795846818#4 -795846818#4.7 -795846818#4.95 -795846818#4.102 460418978#3 460418978#3.9 460418978#3.49 369455641#1 369455641#1.28 369455641#1.78 -512126023#7 -512126023#7.8 -512126023#7.19 -512126023#7.31 -512126023#7.44 -512126023#7.91 -512126023#7.107 -512126023#7.111 -512126023#7.245 6496652#0 6496652#0.8 -185483738#8 -185483738#8.6 -185483738#8.58 6485999#0 6485999#0.42 -6351337#0 -661086629#2 -661086629#2.7 -6371720#6 -6371720#5 -6371720#5.41 157167355#0"/>
</vehicle>
<vehicle id = "veh27" type= "veh_passenger" depart="21630" >
<route edges =" -814326475#2 -814326475#2.9 -814326475#2.24 -814326475#2.41 -814326475#2.70 -814326475#2.91 -6456052#5 -6456052#5.10 -6456052#5.36 -6456052#5.120 -607690679#4 -607690679#4.9 -607690679#4.87 -607690679#4.94 -607690679#4.99 -6447455#5 -6447455#5.3 -6447455#5.8 -6447455#5.47 158612542#6 158612542#6.7 158612542#6.50 158612542#6.74 -6415868#5 -6461453#5 -6461453#5.36 -6461453#5.50 -6461453#5.66 -6461453#5.116 -723052304#2 -723052304#2.8 -723052304#0 -6511393#1 -6511393#1.119 -912290518#7 -912290518#7.59 -912290518#5 -912290518#5.5 -912290518#5.37 -912290518#5.42 -912290518#5.62 -912290518#5.70 -912290518#2 -912290518#2.2 -912290518#2.24 -912290518#2.91 -912290518#2.94 -165086027#1 -165086027#1.2 -165086027#1.5 -759056491 -759056491.4 -759056491.8 -759056491.13 -759056491.17 -759056491.21 -759056491.26 -759056491.41 -759056491.81 -759056491.83 -759056491.88 -337673342#5 -337673342#5.3 -337673342#5.9 -337673342#5.13 -337673342#5.21 -337673342#5.35 -337673342#5.72 -337673342#0 6343890#0 6343890#0.54 6343890#0.56 6343890#0.58 6343890#0.59 6343890#0.61 -6475815#6 -6475815#6.16 -6475815#4 -6475815#3 -6475815#3.2 -6475815#3.17 -6475815#3.46 -428089348#3 -428089348#3.15 -428089348#3.21 -428089348#3.28 332223491#0 332223491#0.12 6438604#0 6438604#0.3 6438604#0.6 6438604#0.8 6438604#0.10 6438604#0.11 6438604#0.13 6438604#0.44 6438604#0.60 -22927969#14 -22927969#14.8 -22927969#14.47 -22927969#14.89 -22927969#10 -22927969#10.10 -22927969#10.51 -22927969#10.91 -6511397#3 -6511397#3.9 -6511397#3.38 -6511397#3.82 428089354#0 428089354#0.9 428089354#0.35 428089352#0 428089352#0.34 -293753570#2 -293753570#2.9 -293753570#2.83 293753571#0 293753571#0.5 293753571#0.20 293753571#0.24 -353690151#2 -353690151#2.9 -353690151#2.22 -353690151#2.24 -353690151#2.39 -353690151#2.72 -353690151#2.92 -433500388#1 -433500388#1.11 -433500388#1.46 -433500388#1.73 -433500388#1.113 -433500388#1.115 -428088900#1 -428088900#1.10 -428088894#1 -428088894#1.25 -428088883#1 -428088883#1.15 -428088897 -428088888 -737711647 -332223490#1 -332223490#1.19 6514305#0 6514305#0.3 6514305#0.4 6514305#0.9 6514305#0.14 6514305#0.34 6514305#0.54 353690159#1 353690159#1.50 353690159#1.92 353690159#4 353690159#4.6 353690159#4.49 353690159#4.69 353690159#4.76 353690159#4.85 353690159#9 353690159#9.9 353690159#9.28 353690159#9.40 353690159#9.53 353690159#9.88 -243338979#3 -243338979#3.10 -243338979#3.38 -243338979#3.51 -243338979#3.65 -6376376#3 -6376376#3.1 -6376376#3.10 -6376376#3.64 -6376376#3.89 -6435230#8 -6463530#13 -6463530#13.11 -6463530#13.50 -6463530#13.94 -6343878#8 -6343878#8.7 -6343878#8.85 -347094714#3 -347094714#3.9 -347094714#3.49 -347094714#3.92 6467490#0 6467490#0.7 6467490#0.49 6467490#0.78 -401497115 -401497115.113 -401497115.170 -401497115.214 -428233435 -460425668 -460425668.5 -6457806#2 -6457806#2.21 -6457806#2.25 -6457806#2.30 6476922#0 6476922#0.13 6476922#0.24 6476922#0.37 6476922#0.60 6476922#0.67 6413383#0 6413383#0.1 6413383#0.3 6413383#0.6 6413383#0.18 6413383#0.26 6413383#0.47 428233432#0 428233432#0.11 428233432#0.22 -739874554#2 -739874554#2.15 -739874554#2.40 -739874554#2.60 -739874554#2.67 622519661 622519661.8 739874553#0 739874553#0.66 739874553#0.80 739874553#0.88 333370569#0 333370569#0.6 333370569#0.13 333370569#0.37 333370569#0.43 333370569#0.66 333370569#0.94 333370569#0.155 333370569#0.178 333370566#0 333370566#0.32 332223494#0 332223494#0.18 332223494#0.35 332223494#0.144 332223494#0.171 22760519#0 22760519#0.7 22760519#0.27 22760519#3 22760519#3.9 22760519#3.21 22760519#3.33 22760519#3.91 965874292#0 965874292#0.8 965874292#0.88 -22917664#2 -22917664#2.11 -22917664#2.76 881403607#0 881403607#0.25 881403607#0.42 881403608#3 881403608#3.2 881403608#3.5 881403608#3.8 881403608#3.11 976099002#0 976099002#0.34 976099002#0.40 976099002#0.64 965874292#7 965874292#7.8 965874292#7.41 965874292#10 965874292#10.35 965874292#12 965874292#12.8 965874292#12.69 158123767#0 158123767#0.10 158123767#0.11 158123767#0.50 158123767#0.74 158123767#0.86 158123767#0.115 158123767#0.122 158123767#0.134 158123767#0.139 158123767#0.166 795669781 795669781.52 795669781.56 460421481#1 460421481#1.61 460421481#1.85 -428247194#1 -428247194#1.9 -428247194#1.28 -157167355#3 -157167355#3.5 -157167355#3.43 -157167355#0"/>
</vehicle>
</routes>
