<?xml version="1.0" encoding="UTF-8"?>
<routes xmlns:xsi="http: // www.w3.org/2001/XMLSchema-instance" xsi:noNamespaceSchemaLocation="http: // sumo.dlr.de/xsd/routes_file.xsd">
<vType id="veh_passenger" vClass="passenger"/>

<vehicle id = "veh0" type= "veh_passenger" depart="0" >
<route edges =" -316633577#1 -316633577#0 -797309094#1 -797309094#0 -797309094#0.6 -797309094#0.12 -797309095 -165864174#3 -165864174#2 -165864174#1 -34361024#1 -34361024#0 -34361024#0.80 -188703042#5 -188703042#4 -188703042#4.59 -188703042#3 -188703042#3.6 -188703042#3.24 -188703042#2 -188703042#1 -188703042#1.59 -188703042#1.74 -188703042#0 -188703042#0.9 -188703042#0.21 -188703049 -201989352#2 -201989352#2.8 -201989352#1 -201989352#1.9 -201989352#1.29 -201989352#0 -34361041#1 -34361041#0 -34361041#0.92 -528122494 -528122494.9 -6360234#7 -6360234#6 -6360234#6.186 -6360234#6.194 -168627934#0 -168627934#0.7 -34811472#12 -34811472#12.8 -34811472#11 -34811472#10 -34811472#9 -34811472#9.6 -34811472#9.49 -34811472#8 -34811472#7 -34811472#6 -34811472#5 -34811472#4 -34811472#4.71 -34811472#3 -34811472#3.7 -34811472#3.66 -34811472#3.122 -34811472#3.194 -34811472#2 -34811472#2.8 -34811472#2.70 -34811472#2.135 -34811472#2.192 -24024251#2 -24024251#2.7 -910274653#0 -930646447 -910274656 -210456949#12 -210456949#12.41 -210456949#11 -210456949#10 -210456949#9 -210456949#9.190 -210456949#8 -210456949#8.10 -26379345#9 -26379345#8 -26379345#8.93 24028181#3 24028181#4 24028181#4.122 24028181#5 24028181#5.186 -190017518#0 -190017518#0.7 -190017518#0.88 -999534620#25 -999534620#24 -999534620#24.3 -541349569 -541349569.193 -6356133#2 -6356133#2.8 -6356133#2.193 -6356133#1 -6356133#1.9 -6356133#0 -541349570 -819368215#0 -819368215#0.76 415870533#8 415870533#8.6 415870533#9 415870525#0 415870525#0.13 415870525#1 415870525#2 22370937#0 22370937#1 22370937#2 22370937#3 22370937#3.6 22370937#4 22370937#4.6 22370937#5 22370937#5.11 22370937#6 22370937#7 415870519#0 415870519#1 415870531#0 415870531#1 415870531#1.26 415870531#2 22370936#0 22370936#0.7 22370936#0.14 -6353149 1014203284#2 -30832687#3 -30832687#3.8 422792872#1 422792872#1.9 -6346111#4 -6346111#4.91 -6346111#4.93 195433868#5 195433868#5.7 195433868#6 195433868#6.6 -7840628#2 -7840628#2.8 -7840628#1 -7840628#1.193 168627943#7 168627943#7.7 -24164451#1 -24164451#1.7 -24164451#1.193 -24164451#0 24164453 24164453.10 24164453.23 32456680 32456680.2 -422947668 -422947668.11 -233686193 -233686193.8 -196750859#2 -196750859#1 -196750859#1.40 6378198#0 6378198#0.13 6378198#0.178 6378198#0.195 6378198#1 6378198#2 6378198#3 6378198#3.3 6378198#4 6378198#4.3 697544433#2 697544433#2.14 6351007#0 6351007#0.29 6351007#0.46 6351007#0.52 6351007#0.56 6351007#0.62 6351007#0.66 6351007#0.72 6351007#0.77 6351007#0.83 6351007#0.89 6351007#0.98 6351007#1 -6332167#0 -6332167#0.10 6386692#3 6386692#3.3 6386692#3.6 6386692#3.9 6338567#0 6338567#0.10 6338567#0.118 6338567#1 6338567#1.107 6338567#2 6338567#3 6338567#3.80 6338567#4 6338567#4.78 6338567#5 6338567#5.8 6338567#6 6338567#7 6338567#7.90 6338567#8 6338567#8.11 6338567#9 6338567#10 6338567#11 6338567#12 30156401#0 -6333513#3 -6333513#3.137 -11043363#3 -11043363#3.7 -11043363#2 -11043363#1 -11043363#0 7857575#0 7857575#0.10 7857575#0.24 7857575#0.39 7857575#0.57 7857575#0.75 7857575#0.88 7857575#0.126 7857575#0.144 7857575#0.146 7857575#0.162 7857575#0.184 7857575#0.212 7857575#0.218 7857575#0.224 7857575#0.229 7857575#0.241 7857575#0.275 7857575#0.303 7857575#0.315 7857575#0.324 7857575#0.326 7857575#0.339 7857575#0.350 7857575#0.357 7857575#0.360 7857575#0.410 7857575#1 7857575#1.42 7857575#1.66 7857575#1.85"/>
</vehicle>
<vehicle id = "veh1" type= "veh_passenger" depart="0" >
<route edges =" 797309093 797309091#0 797309091#0.10 797309091#1 797309091#1.7 797309091#2 797309091#2.10 797309091#2.15 797309091#3 377635148 377635148.3 377635148.5 -437142992 -437142992.6 -6329160 -6329160.124 -6329160.133 785854260#3 785854260#3.11 785854260#3.30 -763290363 -763290363.11 -24620691#4 -24620691#3 -24620691#2 -24620691#1 -24620691#0 24620690 24620690.5 -24620688 24620689#0 24620689#0.6 24620689#1 24620689#1.9 -201989358#2 -201989358#2.18 -201989358#1 -201989358#1.6 -201989358#1.82 -201989358#0 -195430724#15 -195430724#14 -195430724#14.20 -195430724#13 -195430724#13.78 -195430724#12 -195430724#12.8 -195430724#12.12 -195430724#11 -195430724#11.17 -164659478#5 -164659478#5.7 -164659478#4 -6362542#1 -6362542#1.7 -6362542#0 -6362542#0.104 -7783135#3 -7783135#3.7 -7783135#2 -7783135#2.7 -7783135#1 -7783135#0 -7783135#0.101 43256415 43256415.22 -6345181#8 -6345181#8.4 -6345181#8.7 -6345181#8.93 541334899#0 541334899#0.7 541334899#1 541334899#2 541334899#3 541334899#4 541334899#5 541334900#0 541334900#1 541334900#2 541334900#3 541334900#4 541334900#5 541334900#6 698994092#3 698994092#4 698994092#4.84 6348015 6348015.7 761330890 761330889#0 761330889#1 761330889#2 761330889#3 761330889#3.83 761330889#4 517593873#2 517593873#2.29 517593873#3 415876778 22278225#0 22278225#0.24 22278225#1 22278225#1.6 22278225#1.16 22278225#1.26 196779231#0 196779231#0.12 196779231#1 196779231#1.17 21452694#0 21452694#0.5 21452694#0.7 21452694#0.9 21452694#0.14 21452694#0.21 21452694#0.27 21452694#0.101 21452694#1 21452694#1.9 21452694#1.14 21452694#1.27 21452694#2 415878130#0 415878130#1 415878131#0 415878131#1 682209186 196779232 196779232.9 415878126 415878126.6 415878137#0 415878137#1 194859188#0 194859188#1 194859188#1.24 415878134#0 415878134#1 202177316#0 202177316#1 202177316#2 415878127 415878127.3 415878136#0 415878136#1 -415876790#1 -415876790#0 -756453993 -559526390 -559526390.35 -164658213#11 -164658213#11.10 -164658213#11.12 -164658213#10 -164658213#10.55 -164658213#9 -164658213#8 -164658213#7 -164658213#6 -164658213#6.156 -164658213#5 -164658213#5.7 -164658213#4 -164658213#4.36 -164658213#3 -164658213#2 -164658213#1 -164658213#0 -164658213#0.113 164658212#0 164658212#0.7 164658212#1 193256683#0 193256683#1 193256683#1.83 -618189913#5 -618189913#5.7 -618189913#5.17 -618189913#5.34 -618189913#4 -618189913#4.5 -618189913#4.9 -618189913#4.25 -618189913#3 -618189913#2 -618189913#1 -618189913#1.76 -618189913#1.91 -618189913#0 -618189913#0.6 -618189913#0.24 -618189913#0.90 -618189913#0.190 -618189913#0.204 -618189913#0.219 -618189913#0.231 -694455409#6 -694455409#6.8 -694455409#6.11 -694455409#6.20 -694455409#6.38 -694455409#5 -694455409#5.10 -694455409#5.23 -694455409#5.42 -694455409#5.118 6402116#0 6402116#0.7 6402116#0.10 6402116#0.16 6402116#0.20 6402116#0.54 6402116#0.162 6402116#0.179 6402116#0.194 6402116#0.209 6402116#0.228 6402116#0.245 6402116#0.264 6402116#0.286 6402116#0.307 6402116#0.326 6402116#0.377 6402116#0.411 6402116#0.433 -190579762#17 -190579762#17.47 6341488#16 6341488#16.13 6341488#16.20 6341488#16.48 6341488#16.58 6341488#16.72 6341488#16.96 6341488#16.142 6341488#16.158 6341488#16.170 6341488#16.183 6341488#16.197 -6336093#4 -6336093#4.17 -6336093#4.38 -6336093#4.53 -6336093#4.79 -6336093#4.90 -6336093#3 -6336093#3.13 -6336093#3.25 -6336093#3.39 -6336093#3.120 -6336093#3.127 -6336093#3.135 -6336093#2 -6336093#1 -6339085#8 -6339085#8.12 -6339085#8.19 -6339085#8.28 -6339085#8.38 -6339085#8.98 -6339085#8.116 -6339085#7 -6339085#7.29 -6339085#7.47 -6339085#7.68 -6339085#7.87 -6339085#7.110 -6339085#6 -6339085#5 -6339085#5.13 -6339085#5.24 -6339085#5.39 -6339085#4 -6339085#4.58 -6339085#4.92 -6339085#4.103 -6339085#3 -6339085#3.11 -6339085#3.19 -6339085#3.40 -6339085#3.47 -6339085#3.56 -6339085#3.68 -6339085#3.81 -6339085#3.95 -6339085#3.107 -6339085#3.120 -6339085#2 -6339085#2.14 -6339085#2.26 -6339085#2.37 -6339085#2.49 -6339085#2.63 -6339085#2.115 -6339085#2.125 -6339085#2.140 -6339085#1 -6339085#0 -6339085#0.12 -6339085#0.27 -6339085#0.45 -6339085#0.77 -6339085#0.87 -6339085#0.98 -6339085#0.119 -6339085#0.129 -190579779#0 -190579779#0.109 -190579779#0.117 6333513#0 6333513#0.10 6333513#0.40 6333513#0.51 6333513#0.62 6333513#0.73 6407689#0 -11043364#4 -11043364#3 -11043364#2 -11043364#1 -11043364#0 -11043364#0.73 -11043364#0.81 -7857575#1 -7857575#1.27 -7857575#1.57 -7857575#1.75 -7857575#1.83 -7857575#1.99 -7857575#1.115 -7857575#1.152 -7857575#1.166 -7857575#1.179 -7857575#1.219 -7857575#1.229 -7857575#1.268 -7857575#1.290 -7857575#1.315 -7857575#1.332 -7857575#1.343 -7857575#1.361 -7857575#1.378 -7857575#1.390 -7857575#1.402 -7857575#1.416 -7857575#1.443 -7857575#1.452 -7857575#1.462"/>
</vehicle>
<vehicle id = "veh2" type= "veh_passenger" depart="3605" >
<route edges =" -316633577#1 -316633577#0 -6340080#2 -6340080#1 -6340080#0 -6340080#0.27 -201989373 -201989373.4 -201989373.9 -201989373.42 -201989355#2 -201989355#2.8 -201989355#2.38 -201989355#1 -201989355#0 -5149904#1 -5149904#1.7 -5149904#0 -5149904#0.2 -34361024#1 -34361024#0 -34361024#0.80 -188703042#5 -188703042#4 -188703042#4.59 -6402088#0 -6402088#0.9 -6402088#0.92 -10585277#2 -10585277#1 -10585277#0 -10585277#0.48 -10585277#0.51 -10585277#0.54 6338310#0 6338310#0.3 6338310#0.5 6338310#1 6338310#1.2 6338310#1.9 6338310#1.80 6338310#1.82 -188703042#0 -188703042#0.9 -188703042#0.21 -6329505#1 -6329505#1.9 -6329505#1.18 -6329505#1.26 -6329505#1.79 -6329505#1.88 -6329505#1.97 -6329505#1.104 -6329505#0 -201989352#2 -201989352#2.8 -201989352#1 -201989352#1.9 -201989352#1.29 -201989352#0 -34361041#1 -34361041#0 -34361041#0.92 -528122493#2 -528122493#2.7 -528122493#1 -528122493#0 -6362542#4 -6362542#4.10 -6362542#3 -6362542#3.78 -6362542#3.89 -6362542#3.98 -6362542#3.102 164659477#8 164659477#8.105 -6360234#7 -6360234#6 -6360234#6.186 -6360234#6.194 -6360234#5 -6360234#5.7 -6360234#5.16 -6360234#4 -164659473#11 -164659473#10 -164659473#10.7 7783131#3 7783131#4 7783131#4.171 -34811472#9 -34811472#9.6 -34811472#9.49 -34811472#8 -34811472#7 -34811472#6 -202317716#4 -202317716#3 -202317716#3.20 -202317716#3.88 -202317716#2 -202317716#1 -202317716#1.25 -202317716#1.51 -202317716#0 -574299582#12 -574299582#11 -574299582#10 -574299582#10.22 -574299582#10.72 23226443#8 23226443#8.13 23226443#9 23226443#9.51 23226443#9.68 6344566#3 6344566#3.63 6344566#3.75 6344566#3.85 6344566#3.87 -164659477#6 -164659477#6.18 -164659477#6.133 -164659477#5 -164659477#4 -164659477#3 -574299582#6 -574299582#5 -574299582#4 -574299582#3 -574299582#3.1 -6388344 -6388344.12 -164659449#0 -164659449#0.48 164659493#1 164659493#1.1 164659493#1.3 164659493#1.4 164659493#1.6 164659493#2 164659493#2.1 164659493#2.3 164659493#2.5 164659493#2.7 -164659450#1 -164659450#1.3 -164659450#1.87 -23226443#1 -23226443#1.8 -23226443#1.192 -164659462#0 -164659462#0.7 -164659462#0.91 164659511#1 164659511#1.1 164659511#1.2 164659511#1.4 164659511#1.5 164659479 164659479.3 164659479.186 164659505#4 164659505#0 164659505#0.1 164659505#0.2 164659505#0.4 164659505#1 164659505#1.1 164659505#1.3 164659505#1.4 164659505#1.6 164659505#2 164659505#2.1 164659505#2.2 164659505#2.4 164659505#2.5 -164659446 -164659446.3 -164659446.87 164659489#1 164659489#1.1 164659489#1.3 164659489#1.4 164659489#1.6 164659481#0 164659481#0.3 164659481#1 164659481#2 164659481#3 -25316538#6 -25316538#6.7 -25316538#6.93 -34811472#3 -34811472#3.7 -34811472#3.66 -34811472#3.122 -34811472#3.194 164659447#1 164659447#1.7 164659447#1.91 164659489#3 164659489#3.1 164659489#3.3 164659489#3.4 164659489#3.6 -164659482 -164659482.3 -164659482.186 164659515#2 164659515#2.1 164659515#2.3 164659515#2.4 164659515#2.6 -24024251#3 -24024251#3.3 -24024251#3.88 -24024251#2 -24024251#2.7 -910274653#0 -930646447 -910274656 -210456949#12 -210456949#12.41 -210456949#11 -210456949#10 -210456949#9 -210456949#9.190 201989365#4 201989365#4.8 201989365#4.74 201989365#4.86 201989365#5 172616532#0 172616532#1 172616532#1.2 172616532#1.30 172616532#1.49 172616532#1.57 172616532#1.69 172616532#1.89 172616532#1.107 172616532#1.117 172616532#1.124 172616532#1.133 172616532#2 172616532#2.7 172616532#2.17 172616532#3 172616532#3.6 172616532#3.13 172616532#4 172616532#4.0 172616532#4.3 32456661#4 32456661#4.8 32456661#4.92 32456661#5 32456661#6 32456661#6.8 32456661#7 32456661#8 32456661#8.35 -25968351#5 -25968351#5.187 -25968351#5.190 -201989365#10 -201989365#10.8 -201989365#10.77 -201989365#10.92 -201989365#9 -201989365#9.8 -201989365#9.22 -201989365#9.93 -6384487#12 -6384487#12.10 -6384487#12.12 -6384487#12.149 -6384487#11 -6384487#11.7 -6384487#10 -6384487#9 -6384487#9.22 25968337#12 25968337#12.93 25968337#13 25968337#13.7 25968337#14 25968337#15 25968337#15.7 25968337#15.104 -25968349#2 -25968349#2.53 -25968349#1 -25968349#1.18 -25968349#0 -25968349#0.30 -25968349#0.36 25968353#3 25968353#3.1 25968353#3.2 25968353#3.3 25968353#3.4 -25968346#2 -25968346#2.3 -25968346#2.8 -25968346#1 -25968346#0 -25968346#0.40 25968357#2 25968357#2.1 25968357#2.3 25968357#2.4 25968357#2.6 25968357#3 25968357#3.1 25968357#3.3 25968357#3.4 25968357#3.6 -25968345#3 -25968345#3.3 -25968345#3.87 -25968345#2 -25968345#2.7 -25968345#2.93 -25968345#1 -25968345#1.7 -25968345#0 -25968345#0.49 25968359#2 25968359#2.1 25968359#2.2 25968359#2.4 25968359#2.5 25968359#2.7 25968350#0 25968350#0.3 25968350#1 25968350#1.193 -26379345#10 -26379345#10.86 -210456949#7 -210456949#7.59 -210456949#7.73 -210456949#7.89 -210456949#7.101 -210456949#6 -210456949#5 -210456949#5.187 -25968343#0 -25968343#0.7 -25968343#0.90 25968344#2 25968344#2.1 25968344#2.3 25968344#2.5 25968344#2.6 25968342#0 25968342#0.3 25968342#1 25968342#2 25968342#2.118 25968342#2.125 25968342#2.133 25968342#2.141 -26379345#8 -26379345#8.93 -24028181#2 -24028181#2.6 -24028181#1 -24028181#1.19 -201989365#1 -201989365#1.10 -201989365#0 -415876797#1 -415876797#1.5 -415876797#0 -415876793#1 -415876793#0 -415876793#0.17 -201989366 -937946572#1 -937946572#0 -43050009#1 -43050009#1.55 -43050009#0 423105088#0 423105088#1 541351341 541351341.163 -233699763#2 -233699763#2.7 -233699763#2.9 -233699763#2.71 -233699763#2.92 -233699763#1 -233699763#1.11 -233699763#0 6403126#0 6403126#1 6403126#2 6403126#3 6403126#4 6403126#5 6403126#6 415878172#0 415878172#1 415878172#2 415878172#3 415878139#0 415878139#0.13 415878139#1 -910274628#0 -682085478#1 -682085478#0 -6371446#1 -6371446#0 -6371446#0.82 -6371446#0.83 -617930717 -617930717.6 -679424764#2 195430727#0 195430727#1 195430727#1.7 195430727#1.37 -288515137#1 -288515137#0 -288515137#0.9 -288515137#0.19 -288515137#0.27 -757241413#1 -757241413#0 435607778#0 435607778#1 435607778#2 435607778#2.47 435607778#2.116 -43049945#5 -43049945#5.8 -43049945#5.72 -43049945#4 -43049945#3 -43049945#2 -43049945#1 -43049945#0 -43049945#0.18 -43049945#0.37 -43049945#0.39 -415876799#1 -415876799#1.7 -415876799#0 -43049946#1 -43049946#0 6336803#0 6336803#1 6336803#2 6336803#3 6336803#4 6336803#5 6336803#5.30 6336803#6 6336803#7 196739942#0 196739942#1 196739942#2 196739942#3 196739942#4 311474500#0 311474500#1 296976970#0 296976970#1 296976970#2 296976970#3 296976970#4 296976970#5 415876796#0 415876796#1 415876796#2 296976973#0 296976973#0.2 296976973#0.6 296976973#1 296976973#1.128 296976973#2 -541350929#1 -541350929#0 -541350929#0.84 -164659430#3 -164659430#3.8 -164659430#3.92 -164659430#2 -164659430#2.8 -6404288#3 -6404288#3.10 -23874081#1 -23874081#1.92 -23874081#0 -23874081#0.8 -23874081#0.91 541350678 541350678.6 541350678.193 6373282#0 6373282#0.6 6373282#0.193 6373282#1 6373282#1.8 -999534620#26 -999534620#26.51 -999534620#26.67 -999534620#26.74 -190017519 -190017519.7 25968341 25968341.18 25968341.56 -999534620#24 -999534620#24.3 -541349569 -541349569.193 -6356133#2 -6356133#2.8 -6356133#2.193 -6356133#1 -6356133#1.9 -6356133#0 -7773729#7 -7773729#6 415870533#6 415870533#7 415870533#7.17 415870533#7.70 415870533#7.162 415870533#7.211 415870533#8 415870533#8.6 415870533#9 415870525#0 415870525#0.13 415870525#1 415870525#2 22370937#0 22370937#1 22370937#2 22370937#3 22370937#3.6 22370937#4 22370937#4.6 22370937#5 22370937#5.11 22370937#6 22370937#7 415870519#0 415870519#1 415870531#0 415870531#1 415870531#1.26 415870531#2 22370936#0 22370936#0.7 22370936#0.14 -6353149 1014203284#2 30832687#4 30832687#4.8 30832687#5 7841698#2 7841698#2.8 7841698#3 -30909407#4 -30909407#3 -30909407#2 -422792872#3 -422792872#3.7 6333700#4 6333700#4.8 6333700#4.94 -24314605#0 -24314605#0.90 -24314605#0.93 -6346111#5 -6346111#5.2 -6346111#5.5 -6346111#5.6 -422792872#1 -422792872#1.191 -30832687#2 -30832687#2.91 -30832687#2.92 -30832687#1 -30832687#1.7 -30832687#1.9 -30832687#0 -30832687#0.21 -422929506 -422929504 -422929504.11 -422929505#1 -6339229#0 164658838#1 426767275 426767274 -24164436 -24164436.57 -24164436.115 -113629978#3 -113629978#3.7 -113629978#2 -113629978#2.67 6336821#1 6336821#2 6336821#3 6336821#3.34 6336821#4 22370939#0 22370939#1 22370939#1.51 22370939#1.78 22370939#2 415803770#0 415803770#1 -22372605#7 -22372605#6 -22372605#6.6 -22372605#6.15 -22372605#6.23 -22372605#6.183 -22372605#6.187 -22372605#5 -22372605#5.9 -22372605#5.15 -22372605#5.22 -22372605#5.34 -22372605#5.61 -22372605#4 -6399617#1 -6399617#1.29 -6399617#1.37 -6399617#1.46 -6399617#1.81 -6399617#1.92 -6399617#1.103 6392980 6392980.11 6335796#3 -6349061#3 -6349061#2 -6349061#1 -6349061#0 -6349061#0.66 -24297044#11 -24297044#11.15 -24297044#11.132 -24297044#10 -24297044#10.10 -24297044#9 -24297044#9.23 -24297044#8 -24297044#7 -24297044#6 -24297044#6.9 -24297044#6.15 -24297044#6.21 -24297044#5 -24297044#4 -24297044#3 -24297044#2 6376847#0 6376847#0.6 6376847#1 6376847#2 6376847#2.5 6376847#3 6376847#3.7 6376847#3.9 6376847#4 6376847#4.98 233698097#6 233698097#6.6 233698097#6.121 233698097#7 233698097#7.11 233698097#8 233698097#9 233698097#10 449858702 449858702.4 449858702.7 -189843770 -189843770.5 -189843770.8 -189843770.12 6390753#0 6390753#0.6 6390753#0.21 6390753#0.54 6390753#0.62 6390753#0.69 6390753#0.76 6390753#0.89 6390753#0.97 6390753#0.106 6390753#1 6390753#1.9 6390753#1.56 6390753#1.64 415870532#3 415870532#3.85 415870532#4 -621966760#4 -621966760#4.10 -621966760#3 -621966760#2 -621966760#1 -621966760#0 -449859137 -449859137.42 -449859137.44 -449859137.46 23089189#0 23089189#0.1 23089189#0.4 23089189#0.6 23089189#0.8 23089189#0.14 23089189#1 23089189#2 23089189#2.8 23089189#3 23089189#4 23089189#4.6 23089189#4.9 164658208#0 164658208#0.10 164658208#0.12 164658208#0.122 164658208#1 164658208#1.7 -6334268#3 -6334268#3.9 -6334268#2 -6334268#1 -6334268#1.57 -6334268#0 -23874085#0 -23874085#0.71 193991030#1 193991030#1.1 193991030#1.3 193991030#1.5 193991030#1.7 23874084#0 23874084#0.2 23874084#1 23874084#2 -6329575#5 -6329575#5.88 -6329575#5.120 -6329575#4 -6329575#4.10 -6344903#5 -6344903#5.7 -6344903#5.86 -6344903#4 -6344903#4.11 -6344903#4.126 6376847#6 6376847#6.6 -22372583#9 -22372583#8 -22372583#8.76 -6330089#4 -6330089#4.9 -6330089#4.96 -6344903#2 -6344903#2.7 -6344903#1 -6344903#0 -6344903#0.20 867654315 203193436#0 203193436#0.38 233698097#0 233698097#0.6 233698097#0.8 -22372604 -22372604.7 -22372604.194 22372606 22372606.6 22372606.13 22372606.20 -541341824 -541341824.8 -541341824.10 -541341824.25 -541341819 -42639731#3 -42639731#2 -42639731#2.113 -42639731#2.192 35602546#4 35602546#4.6 35602546#5 35602546#5.6 35602546#6 35602546#6.19 35602546#6.26 35602546#6.29 35602546#7 772677035#1 772677035#1.7 772677035#1.188 24164443#2 24164443#2.10 24164443#2.28 24164443#2.137 24164443#2.139 22372609#1 22372609#1.1 22372609#1.3 22372609#1.5 22372609#2 22372609#2.2 22372609#2.4 22372609#2.6 22372609#2.9 -541339973#6 772677033#3 772677033#4 772677033#4.71 772677033#4.73 772677033#5 772677033#5.7 772677033#5.9 772677033#5.57 772677033#6 772677033#6.8 772677033#6.194 233698097#2 233698097#2.69 -22372608#2 -22372608#2.7 -22372608#1 -22372608#1.90 6347540 6347540.48 -188283697 -188283697.8 -188283697.17 188283693#0 188283693#0.8 -7844195 -7844195.9 -7844195.26 -7844195.46 -7844195.54 -7844195.332 -422792874 -422792874.12 -422792873 -422792873.11 -6359978 -6359978.24 -6359978.153 -6359978.194 -6359978.214 -6359978.234 188283693#2 188283693#3 188283693#4 -593529471 -593529471.7 -593529471.11 -593529471.16 -593529471.61 -221321162#1 -221321162#1.19 -221321162#1.248 -221321162#1.250 21485403#5 21485403#5.8 21485403#5.79 21485403#5.90 21485403#6 21485403#6.7 21485403#6.18 6335787#1 6335787#1.7 6335787#1.70 6335787#1.79 -593529470#1 24297035#2 24297035#2.9 113629978#0 113629978#0.42 113629978#0.60 113629978#0.81 113629978#0.100 113629978#0.181 -6335796#0 -6335796#0.6 -6335796#0.88 164658209 195595366#0 195595366#0.3 195595366#1 195595366#1.17 195595366#1.69 195595366#4 195595366#5 195595366#6 195595366#7 195595366#8 195595366#8.11 195595366#8.14 6344917#0 6344917#0.8 6344917#0.18 6344917#0.21 6344917#0.33 6344917#1 6344917#1.13 6344917#1.26 6344917#2 6344917#3 6344917#3.16 6344917#3.35 6344917#3.69 6344917#3.86 6344917#3.102 6344917#3.117 6344917#3.134 6344917#3.174 6344917#3.192 6344917#3.212 6344917#3.232 7913800#1 7913800#1.15 7913800#1.27 7913800#1.41 7913794#0 7913794#0.23 7913794#1 7913794#1.22 7913794#1.44 7913794#1.65 -30832716#2 -30832716#2.31 -30832716#2.38 -30832716#2.44 -30832716#1 -30832716#1.76 -422947669#0 -422947669#0.10 -422947669#0.153 422947666#0 422947666#0.7 422947666#0.23 422947666#1 422947666#1.30 422947666#1.60 422947665#0 422947665#0.35 422947665#0.47 422947665#0.55 422947665#1 -306210484#1 -306210484#0 -306210483#3 -306210483#2 241532453#8 241532453#8.31 241532453#9 241532453#9.19 241532453#9.32 28842636#3 28842636#3.99 28842636#3.120 28842636#4 28842636#4.207 28842636#4.218 28842636#4.220 28842636#4.222 422947669#2 774602461 774602461.22 422947668 422947668.22 -32456680 -32456680.36 -32866258 -32866258.10 -30832948#10 -30832948#10.77 -30832948#9 -30832948#9.8 -30832948#9.16 -30832948#9.41 -30832948#8 -30832948#7 -30832948#6 -30832948#5 -30832948#5.20 -30832948#5.71 7913793 7913793.8 7913793.258 6383959 6383959.96 -166409141#1 -166409141#1.5 -166409141#1.13 -166409141#1.111 6346111#1 6346111#2 6346111#3 6346111#3.91 6346111#3.92 195433868#5 195433868#5.7 195433868#6 195433868#6.6 195433868#7 195433868#7.6 195433868#7.93 24164451#5 24164451#5.8 24164451#5.10 24164451#5.192 24314605#4 24314605#4.91 24314605#4.93 363370643#1 363370643#1.7 363370643#1.22 363370643#1.93 22370936#6 22370936#6.7 22370936#6.13 22370936#6.194 22370936#6.195 -23089173#2 -23089173#2.6 -23089173#2.28 -23089173#2.39 -23089173#2.51 -23089173#2.57 -23089173#2.90 -23089173#2.93 -24314605#6 -24314605#6.6 -6388365#5 -6388365#5.6 -6388365#5.9 -6388365#5.194 -6388365#5.195 415882499#2 415882499#2.7 415882499#2.93 415882499#3 415882499#3.5 -6339837#6 -6339837#6.7 -6339837#5 -6339837#5.94 -6339837#4 -6339837#4.6 -6339837#3 -6339837#2 -6339837#1 -6339837#0 -6339837#0.38 -32456218#4 -32456218#3 -32456218#3.52 22277720#3 22277720#3.7 22277720#3.194 -6398141#5 -6398141#5.7 -6398141#5.93 -6398141#4 -6398141#4.6 -6398141#4.89 -6398141#4.92 -6398141#3 -6398141#3.7 -6398141#3.10 -6398141#3.93 -6398141#2 -6398141#2.6 -7840628#1 -7840628#1.193 168627943#7 168627943#7.7 168627943#8 168627943#9 168627943#10 32456218#0 32456218#1 32456218#1.84 -6388365#1 -6388365#1.7 -6388365#1.193 -6402601#2 -6402601#2.6 -6402601#2.92 -26723188#0 -26723188#0.7 -26723188#0.29 -32866333 -32866333.30 -32866333.52 6356111#0 6356111#0.11 6356111#1 6356111#1.59 6356111#1.61 6356111#1.64 -6378710 -6378710.2 -6378710.5 -6378710.11 -6378710.17 -6378710.33 -6378710.43 -6378710.58 -6378710.70 -6378710.82 -6378710.100 -195595360#1 -195595360#1.30 -195595360#1.63 -195595360#1.84 -195595360#1.111 -195595360#0 -460683945#1 -460683945#0 -460683946#1 -460683946#0 -415884036 -415884036.2 -417526452 -417526452.5 -417526452.27 -417526430 -196750859#2 -196750859#1 -196750859#1.40 6378198#0 6378198#0.13 6378198#0.178 6378198#0.195 6378198#1 6378198#2 6378198#3 6378198#3.3 6378198#4 6378198#4.3 6408035 6408035.10 697544432 697544432.9 415884026#0 415884026#1 415884026#1.1 30832954#0 541337829 541337829.12 541337829.13 541337829.20 541337829.28 -6327827#1 -6327827#1.7 -6327827#0 -6327827#0.170 541338171#0 187827704#2 187827704#2.7 187827704#2.15 187827704#2.33 187827704#2.51 187827704#2.70 187827704#2.88 187827704#2.107 187827704#2.123 187827704#2.139 187827704#2.159 187827704#2.236 187827704#2.255 187827704#2.270 187827704#2.279 6338567#1 6338567#1.107 -6372673#0 -6372673#0.7 -6372673#0.15 -6372673#0.28 -6372673#0.42 -6372673#0.56 -6372673#0.76 -6372673#0.85 -6372673#0.95 -6372673#0.109 -6372673#0.123 436204253#1 436204253#1.24 436204253#1.33 436204253#2 436204256#0 436204256#0.7 436204256#0.17 436204256#1 436204256#1.13 436204256#1.30 436204256#1.47 6340364#0 6340364#1 6340364#1.14 6340364#1.38 6340364#1.52 6340364#1.62 6340364#1.72 6340364#1.90 6340364#1.103 6340364#1.115 6340364#1.126 6340364#1.129 22017055#0 22017055#1 22017055#1.18 22017055#1.33 22017055#1.55 22017055#2 22017055#2.22 22017055#2.47 22017055#2.73 22017055#2.95 22017055#2.120 22017055#3 22017055#3.26 22017055#3.48 22017055#3.76 22017055#3.106 22017055#3.123 22017055#3.134 22017055#3.140 22017055#4 22017055#4.7 22017055#4.15 22017055#4.26 22017055#4.39 22017055#4.50 22017055#4.60 22017055#4.68 302542695 302542672 415793327 415793327.16 11154776#0 11154776#0.17 11154776#0.18 24528065 24528065.11 24528065.20 24528065.26 24528065.31 24528065.36 24528065.54 24528065.61 24528065.67 11152046#0 11152046#0.5 11152046#0.11 11152046#0.38 11152046#0.56 11152046#0.91 11152046#0.97 11152046#0.104 11152046#0.117 11152046#0.123 11152046#0.131 11152046#0.140 11152046#0.167 11152046#0.177 11152046#0.183 11152046#0.188 11152046#0.193 11152046#0.202 11152046#0.214 11152046#0.220 11152046#1 11152046#1.2 11152046#1.11 11152046#1.22 11152046#2 11152046#2.16 11152046#2.24 11152046#2.29 11152046#2.35 11152046#2.40 11152046#2.47 11152046#3 11152046#3.18 11152046#3.56 11152046#3.65 11152046#3.81 11152046#3.90 11152046#3.109 11152046#4 11152046#4.6 11152046#4.11 11152046#4.18 11152046#4.48 -6374520#2 -6374520#2.14 -6374520#2.25 -6374520#1 -6374520#1.14 -6374520#0 -6374520#0.39 -694236847#2 -694236847#1 -694236847#1.12 -694236847#1.36 -694236847#1.51 -694236847#1.66 -694236847#1.99 -694236847#1.110 -694236847#1.124 -694236847#1.167 -694236847#1.210 -694236847#1.242 -694236847#0 -694236847#0.15 -694236847#0.34 -694236847#0.61 -694236847#0.95 -694236846#1 -694236846#0 11154776#10 11154776#10.5 11154776#10.25 11154776#10.62 11154779#0 11154779#0.82 11154779#0.108 11154779#0.137 11154779#0.162 11154779#0.189 11154779#0.208 11154779#1 11154779#2 11154779#3 11154779#3.11 11154779#3.23 11154779#3.44 11154779#4 11154779#4.19 11154779#5 11154779#5.12 11154779#5.91 11154779#5.98 11154779#5.104 11154779#6 11154779#6.16 11154779#6.25 11154779#6.50 11154779#6.61 11154779#6.70 11154779#6.80 11154779#6.93 6358815#1 6358815#1.12 6358815#1.27 6358815#1.43 6358815#1.56 6358815#1.69 6358815#1.82 6358815#1.118 6358815#1.128 6358815#1.136 6358815#1.143 6358815#1.151 6358815#1.159 6358815#1.173 6358815#1.183 -193256686#16 -193256686#16.14 -193256686#16.26 -193256686#16.40 -193256686#16.54 -193256686#16.68 -193256686#16.103 -193256686#16.120 -193256686#15 -193256686#15.16 -193256686#15.31 -193256686#15.44 -193256686#15.66 -193256686#15.91 -193256686#15.106 -193256686#14 -193256686#14.15 -193256686#14.42 -193256686#14.52 -193256686#14.56 6371698#0 6371698#0.8 6371698#0.40 6371698#1 6371698#1.51 6371698#1.66 6341488#7 6341488#7.16 6341488#7.39 6341488#7.79 6341488#7.90 6341488#8 6341488#9 6341488#9.74 6341488#9.82 6341488#10 6341488#10.3 6341488#10.13 6341488#10.25 6341488#10.35 6341488#10.48 6341488#10.63 6341488#10.80 6341488#10.93 6341488#10.105 6341488#11 6341488#11.11 6341488#11.23 6341488#11.38 6341488#12 6341488#12.14 6341488#12.32 6341488#12.46 6341488#12.62 6341488#12.73 6338567#6 6336095#2 6336095#2.8 6336095#2.26 6336095#2.155 -190579762#10 -190579762#10.15 -190579762#10.28 -190579762#10.45 -190579762#9 -190579762#9.17 -190579762#9.29 -190579762#9.42 -190579762#9.56 -190579762#9.71 -190579762#9.81 6338567#8 6338567#8.11 6338567#9 6338567#10 6339085#5 6339085#5.26 6339085#5.42 6339085#5.53 6335820 6335820.8 6335820.17 6335820.61 6335820.74 6335820.81 6335820.90 6335820.96 6335820.103 6335820.110 6335820.134 6335820.141 -6331171#1 -6331171#1.23 -6331171#1.39 -6331171#1.56 -6331171#1.78 6338567#12 30156401#0 -6333513#3 -6333513#3.137 -11043363#3 -11043363#3.7 -11043363#2 -11043363#1 6361146#0 6361146#0.52 6361146#0.64 6361146#0.89 6361146#0.103 6361146#0.116 6361146#0.128 6361146#0.148 6361146#0.201 6361146#0.214 6361146#0.230 6361146#0.246 6361146#0.259 6361146#0.276 -6361141 -6361141.7 194872395#4 194872395#4.5 194872395#4.9 194872395#4.12 194872395#4.17 194872395#4.22 194872395#4.29 194872395#4.115 194872395#4.139 194872395#4.158 194872395#4.166 194872395#4.175 194872395#4.193 194872395#4.217 194872395#4.233 7857575#0 7857575#0.10 7857575#0.24 7857575#0.39 7857575#0.57 7857575#0.75 7857575#0.88 7857575#0.126 7857575#0.144 7857575#0.146 7857575#0.162 7857575#0.184 7857575#0.212 7857575#0.218 7857575#0.224 7857575#0.229 7857575#0.241 7857575#0.275 7857575#0.303 7857575#0.315 7857575#0.324 7857575#0.326 7857575#0.339 7857575#0.350 7857575#0.357 7857575#0.360 7857575#0.410 7857575#1 7857575#1.42 7857575#1.66 7857575#1.85"/>
</vehicle>
<vehicle id = "veh3" type= "veh_passenger" depart="3605" >
<route edges =" 797309093 797309091#0 797309091#0.10 797309091#1 797309091#1.7 797309091#2 797309091#2.10 797309091#2.15 797309091#3 377635148 377635148.3 377635148.5 377635149#0 377635149#0.19 377635149#0.28 377635149#0.40 377635149#0.54 377635149#1 377635149#1.77 6348380#2 6348380#2.74 6348380#2.87 6348380#2.97 6333080 6333080.6 6346195#1 6346195#1.16 6346195#1.26 6346195#1.36 6346195#1.46 6346195#1.55 6346195#1.62 6346195#1.72 6346195#1.80 6346195#1.89 6346195#1.98 6346195#1.109 6346195#1.118 6346195#1.136 6346195#1.152 437142998 184924125#0 6345697 -6348380#0 -6348380#0.166 6361214 -10389874 437142999#0 437142999#1 -437143007#2 -437143007#1 -437143007#1.3 -437143007#1.47 -437143007#1.70 -437143007#0 -785854260#6 -785854260#6.9 -785854260#6.66 -785854260#5 -785854260#4 -785854260#4.6 -785854260#4.65 -763290363 -763290363.11 -24620691#4 -24620691#3 -24620691#2 -24620691#1 -24620691#0 24620690 24620690.5 -24620688 24620689#0 24620689#0.6 24620689#1 24620689#1.9 201989358#3 201989358#4 201989358#4.1 201989358#4.6 201989358#4.90 201989358#5 201989358#5.9 201989358#5.78 201989358#5.98 201989358#6 201989358#6.7 201989358#6.21 201989358#7 201989358#7.2 201989358#7.32 -481521358#3 -481521358#3.11 -481521358#2 -6360237 -6360237.240 -759762166 759762167 759762167.1 -34361042 -34361042.8 -34361042.97 34361041#0 34361041#0.7 34361041#1 -195430724#15 -195430724#14 -195430724#14.20 -195430724#13 -195430724#13.78 10585275#1 10585275#1.9 10585275#2 -6357225 -6357225.7 -6332541#0 -6332541#0.83 -195430724#9 -195430724#8 -195430724#7 -195430724#7.8 -195430724#6 -195430724#6.35 -168627934#1 -168627934#1.8 6360234#6 6360234#6.7 6360234#6.14 6360234#7 -164659477#8 -164659477#8.7 -164659477#7 -164659477#7.9 -164659477#7.96 -6344566#3 -6344566#3.8 -6344566#3.11 -6344566#3.20 -6344566#3.32 -23226443#9 -23226443#9.67 -23226443#9.84 -23226443#8 -23226443#8.64 574299582#10 574299582#10.7 574299582#10.56 574299582#11 574299582#12 164659478#0 164659478#1 164659478#2 164659478#2.41 164659478#2.70 164659478#2.127 164659478#3 164659478#3.7 -6362542#1 -6362542#1.7 -6362542#0 -6362542#0.104 -34811472#12 -34811472#12.8 -34811472#11 -34811472#10 -7783131#4 -7783131#4.7 -7783131#3 -164659473#9 -164659473#8 -164659473#8.12 -164659473#7 -164659473#7.13 -164659473#6 -164659473#6.16 -202317716#12 -202317716#12.7 -202317716#11 -202317716#11.7 -202317716#10 -202317716#10.15 -202317716#9 -202317716#9.44 -164659438#2 -164659438#2.12 -164659438#1 -164659438#1.55 -164659438#0 -164659438#0.7 -164659438#0.194 164659513#2 164659513#2.1 164659513#2.3 164659513#2.4 164659513#2.6 -164659448 -164659448.3 -164659448.87 164659510#1 164659510#1.1 164659510#1.2 164659510#1.4 164659510#1.5 164659510#2 164659510#2.1 164659510#2.2 164659510#2.4 164659510#2.5 -25316837#1 -25316837#1.3 -25316837#1.88 24024250#1 24024250#1.7 24024250#2 24024250#3 24024250#3.40 25316538#1 25316538#2 25316538#3 25316538#3.45 164659473#3 164659473#3.7 -6404484 24024250#5 24024250#5.66 24024250#6 742663483#0 742663483#1 742663483#1.35 742663483#1.56 742663483#1.77 742663483#1.84 742663483#2 196779228#0 196779228#1 196779228#2 196779228#3 196779228#4 196779228#5 196779228#6 196779228#6.35 7783135#0 7783135#0.7 7783135#1 7783135#2 7783135#2.38 164659473#11 164659473#12 164659473#12.106 -195430724#2 -195430724#2.27 -195430724#1 -195430724#1.26 -195430724#0 -698994081#5 -698994081#4 -698994081#3 -698994081#2 -698994081#1 -698994081#0 6333764#0 6333764#1 6333764#1.11 6333764#2 6333764#3 6333764#4 6333764#5 6333764#6 6333764#6.55 541334899#0 541334899#0.7 541334899#1 541334899#2 541334899#3 541334899#4 541334899#5 541334900#0 541334900#1 541334900#2 541334900#3 541334900#4 541334900#5 541334900#6 541334900#7 541334900#8 -6371277 -6371277.7 -6371277.92 27877606#6 27877606#7 27877606#7.53 6348015 6348015.7 761330890 761330889#0 761330889#1 761330889#2 761330889#3 761330889#3.83 761330889#4 517593873#2 517593873#2.29 517593873#3 415876778 196779219#0 196779219#1 196779219#2 196779219#3 30833030#0 30833030#1 30833030#1.19 196779231#0 196779231#0.12 196779231#1 196779231#1.17 21452694#0 21452694#0.5 21452694#0.7 21452694#0.9 21452694#0.14 21452694#0.21 21452694#0.27 21452694#0.101 21452694#1 21452694#1.9 21452694#1.14 21452694#1.27 21452694#2 415878130#0 415878130#1 415878131#0 415878131#1 682209186 196779232 196779232.9 415878126 415878126.6 415878137#0 415878137#1 22372598#1 22372598#2 22372598#3 -6391592#1 -6391592#1.7 -6391592#0 -6391592#0.14 781008559#0 781008559#1 781008559#2 781008559#3 202177316#0 202177316#1 202177316#2 415878127 415878127.3 415878136#0 415878136#1 415876789 195433872 958717203 903957347 903957347.10 903957346#0 903957346#0.5 903957346#1 903957346#1.14 415876791 415876791.6 415876791.11 415876791.19 415876791.38 6365504#0 6365504#0.12 6365504#0.17 6365504#0.22 6365504#1 6365504#1.47 6365504#2 -23089174 23089172#0 23089172#0.2 23089172#0.23 23089172#0.47 23089172#0.53 23089172#1 23089172#1.5 23089172#2 23089172#2.5 23089172#2.12 23089172#2.16 23089172#3 23089172#4 23089172#5 23089172#5.27 -6400775#30 -6400775#30.7 -6400775#30.20 -6400775#29 -6400775#28 -6400775#28.41 -6400775#28.46 -6400775#27 -6400775#27.6 -6400775#26 -6400775#26.2 -6400775#26.21 -22275208#2 -22275208#2.7 -22275208#1 -22275208#1.98 -22275208#0 -22275208#0.9 -22275208#0.117 -22275208#0.123 -22275208#0.126 -168627917 -7990899#2 -7990899#2.27 6341088#0 6341088#0.9 6341088#0.125 6341088#1 6341088#1.6 6341088#1.171 6341088#2 6341088#2.7 6341088#3 430161670#0 430161670#1 430161670#1.32 22273549 22273549.9 22273549.20 22273549.25 22273549.32 188283039 188283039.6 188283039.41 22273551 22273551.5 22273551.51 188283043#0 188283043#0.4 188283043#0.6 188283043#1 188283043#1.3 188283043#2 188283043#2.19 188283043#2.27 188283043#2.31 -188283056#1 -188283056#0 -188283056#0.15 -188283056#0.31 -188283040#1 -188283040#1.28 -188283040#1.42 -188283040#1.47 -188283040#0 -188283040#0.6 -188283040#0.66 -188283040#0.73 -6385550#1 -6385550#0 -6385550#0.2 -6385550#0.7 -6385550#0.36 -6385550#0.42 -6385550#0.48 -6385550#0.71 6327971#4 6327971#4.10 6327971#4.18 6327971#4.32 6327971#4.38 6327971#4.46 -288127321#7 -288127321#7.15 -288127321#6 -288127321#6.8 -288127321#5 -288127321#4 -288127321#3 -288127321#2 -288127321#2.58 -288127321#1 -288127321#0 -363370637#7 -363370637#7.92 -363370637#6 -363370637#6.7 -363370637#5 -363370637#4 21452801#9 21452801#10 21452801#10.1 21452801#10.21 21452801#11 21452801#12 21452801#12.12 21452801#12.41 -24314605#15 -24314605#15.6 -24314605#15.8 -164658213#7 -164658213#6 -164658213#6.156 -164658213#5 -164658213#5.7 -164658213#4 -164658213#4.36 32618074#4 32618074#4.7 32618074#5 32618074#6 -21452801#3 -21452801#2 -21452801#1 -21452801#1.22 -21452801#1.26 -21452801#0 -164658212#1 -164658212#0 -164658212#0.85 -32618072#2 -32618072#2.7 -32618072#1 -32618072#0 -32456227#8 -32456227#7 22277729#0 22277729#1 22277729#1.73 22277729#1.129 22277729#1.185 22277729#2 22277729#3 36985596 36985597#0 36985597#1 36985597#2 36985597#2.46 36985597#2.74 541337642 541337642.7 187827704#0 187827704#0.39 187827704#0.54 187827704#0.63 187827704#0.83 187827704#0.95 187827704#0.110 187827704#0.122 187827704#0.137 187827704#0.150 187827704#1 187827704#1.7 187827704#1.56 187827704#1.70 187827704#1.82 187827704#1.93 187827704#1.174 187827704#1.180 187827704#1.185 187827704#1.187 541338171#1 541338171#1.7 541338171#1.52 541338171#1.99 541338171#1.141 574377108 574377108.28 574377108.72 574377108.85 574377108.86 -694455409#6 -694455409#6.8 -694455409#6.11 -694455409#6.20 -694455409#6.38 -694455409#5 -694455409#5.10 -694455409#5.23 -694455409#5.42 -694455409#5.118 6402116#0 6402116#0.7 6402116#0.10 6402116#0.16 6402116#0.20 6402116#0.54 6402116#0.162 6402116#0.179 6402116#0.194 6402116#0.209 6402116#0.228 6402116#0.245 6402116#0.264 6402116#0.286 6402116#0.307 6402116#0.326 6402116#0.377 6402116#0.411 6402116#0.433 -190579762#17 -190579762#17.47 6341488#16 6341488#16.13 6341488#16.20 6341488#16.48 6341488#16.58 6341488#16.72 6341488#16.96 6341488#16.142 6341488#16.158 6341488#16.170 6341488#16.183 6341488#16.197 -6336093#4 -6336093#4.17 -6336093#4.38 -6336093#4.53 -6336093#4.79 -6336093#4.90 -6336093#3 -6336093#3.13 -6336093#3.25 -6336093#3.39 -6336093#3.120 -6336093#3.127 -6336093#3.135 -6336093#2 -6336093#1 -6339085#8 -6339085#8.12 -6339085#8.19 -6339085#8.28 -6339085#8.38 -6339085#8.98 -6339085#8.116 -6339085#7 -6339085#7.29 -6339085#7.47 -6339085#7.68 -6339085#7.87 -6339085#7.110 -6339085#6 -6339085#5 -6339085#5.13 -6339085#5.24 -6339085#5.39 6338567#11 -6331171#0 -6331171#0.25 -6331171#0.43 -6331171#0.60 -6331171#0.76 -6331171#0.88 -6331171#0.103 -6331171#0.128 -6331171#0.142 -6331171#0.152 -6331171#0.164 -6331171#0.175 -6331171#0.204 -6331171#0.224 -6331171#0.241 -6331171#0.267 -6331171#0.278 -6331171#0.300 -6331171#0.317 -6331171#0.335 -6331171#0.377 -6331171#0.390 -6331171#0.400 -190579779#2 -190579779#2.8 -190579779#1 -190579779#1.11 -190579779#1.12 -190579779#1.23 -190579779#1.39 -190579779#1.63 -190579779#0 -190579779#0.109 -190579779#0.117 6333513#0 6333513#0.10 6333513#0.40 6333513#0.51 6333513#0.62 6333513#0.73 6407689#0 -11043364#4 6344393 6344393.33 6344393.38 6344393.42 6344393.48 -11043364#2 -11043364#1 -11043364#0 -11043364#0.73 -11043364#0.81 -7857575#1 -7857575#1.27 -7857575#1.57 -7857575#1.75 -7857575#1.83 -7857575#1.99 -7857575#1.115 -7857575#1.152 -7857575#1.166 -7857575#1.179 -7857575#1.219 -7857575#1.229 -7857575#1.268 -7857575#1.290 -7857575#1.315 -7857575#1.332 -7857575#1.343 -7857575#1.361 -7857575#1.378 -7857575#1.390 -7857575#1.402 -7857575#1.416 -7857575#1.443 -7857575#1.452 -7857575#1.462"/>
</vehicle>
<vehicle id = "veh4" type= "veh_passenger" depart="7210" >
<route edges =" -316633577#1 -316633577#0 -797309094#1 -797309094#0 -797309094#0.6 -797309094#0.12 -797309095 -165864174#3 -165864174#2 -165864174#1 -34361024#1 -34361024#0 -34361024#0.80 -188703042#5 -188703042#4 -188703042#4.59 6402088#1 6402088#1.8 6402088#1.193 24620691#4 763290363 763290363.2 -785854260#3 -785854260#3.10 -785854260#3.29 6329160 6329160.11 6329160.20 437142992 437142992.95 377635149#0 377635149#0.19 377635149#0.28 377635149#0.40 377635149#0.54 377635149#1 377635149#1.77 -6348380#1 -6348380#0 -6348380#0.166 6361214 -10389874 437142999#0 437142999#1 -437143007#2 -437143007#1 -437143007#1.3 -437143007#1.47 -437143007#1.70 -437143007#0 -785854260#6 -785854260#6.9 -785854260#6.66 -20625899 -20625899.13 -20625899.430 6344478 6344478.10 -201989358#4 -201989358#4.8 -201989358#4.92 -201989358#4.97 25340020 25340020.6 25340020.17 24620689#0 24620689#0.6 24620689#1 24620689#1.9 -201989358#2 -201989358#2.18 -201989358#1 -201989358#1.6 -201989358#1.82 -201989358#0 -34361041#1 -34361041#0 -34361041#0.92 -528122494 -528122494.9 -164659477#8 -164659477#8.7 -6362542#2 -6362542#2.12 -6362542#2.19 -6362542#2.179 -6362542#1 -6362542#1.7 -6362542#0 -6362542#0.104 168627934#0 168627934#0.97 6360234#6 6360234#6.7 6360234#6.14 164659478#5 164659478#5.101 -195430724#9 -195430724#8 6347525#0 6347525#0.6 6347525#0.198 -24620185#1 -24620185#1.6 -24620185#1.74 6318448#1 6318448#1.7 6318448#1.198 -195430724#6 -195430724#6.35 -195430724#5 -195430724#5.10 -195430724#5.24 -195430724#4 -195430724#3 -195430724#3.5 -195430724#3.137 -164659473#12 -164659473#12.8 -164659473#11 -164659473#10 -164659473#10.7 7783131#3 7783131#4 7783131#4.171 -34811472#9 -34811472#9.6 -34811472#9.49 -34811472#8 -34811472#7 -34811472#6 -202317716#4 -202317716#3 -202317716#3.20 -202317716#3.88 -202317716#2 -202317716#1 -202317716#1.25 -202317716#1.51 -202317716#0 -515883300#4 -515883300#3 -515883300#2 -515883300#1 -515883300#0 -515883300#0.102 164659505#2 164659505#2.1 164659505#2.2 164659505#2.4 164659505#2.5 164659505#3 164659505#3.1 164659505#3.3 164659505#3.4 164659505#3.6 164659505#4 164659505#0 164659505#0.1 164659505#0.2 164659505#0.4 164659450#0 164659450#0.3 164659450#0.87 -23226443#1 -23226443#1.8 -23226443#1.192 164659462#1 164659462#1.7 164659462#1.92 164659509#3 164659509#3.1 164659509#3.3 164659509#3.4 164659509#3.6 -25315987 -25315987.3 25315985 25315985.7 25315985.12 -819364512#6 6401499 25316479 25316479.6 202317700#3 202317700#3.60 25315896#0 25315896#0.27 25315896#1 -6342542#3 -6342542#3.171 -421385008#2 -421385008#2.7 -421385008#1 -421385008#1.16 -421385008#0 -421385008#0.7 -421385008#0.69 -421385008#0.71 -638619838 -638619838.8 -638619838.10 -195604802#4 -195604802#4.43 -195604802#4.49 -195604802#4.121 -195604802#4.128 6334729#1 6334729#1.51 6334729#2 6334729#2.41 -6372435#4 -6372435#4.116 -6372435#4.220 -6372435#3 -6372435#3.8 -6372435#2 -6372435#1 -6372435#0 198549475#2 198549475#2.171 421385008#5 421385008#5.7 421385008#6 417696932#0 417696932#0.10 417696932#1 -778470340#6 -778470340#5 -778470340#5.17 -778470340#4 -778470340#3 -6383013 -6383013.10 819364512#3 819364512#3.68 515885395#1 515885395#1.7 515885395#1.27 515885395#2 515885395#2.13 416111322 416111322.12 575429935#0 575429935#0.7 575429935#0.26 575429935#1 575429935#2 1000720853#3 1000720853#4 1000720853#5 1000720853#6 1000720853#7 1000720853#7.136 164659511#4 164659511#0 164659511#0.1 164659511#0.3 164659511#0.4 164659511#1 164659511#1.1 164659511#1.2 164659511#1.4 164659511#1.5 164659511#2 164659511#2.1 164659511#2.2 164659511#2.4 164659511#2.5 -164659460 -164659460.2 -164659460.87 164659515#1 164659515#1.1 164659515#1.3 164659515#1.4 164659515#1.6 164659482 164659482.3 164659482.186 164659489#4 164659489#0 164659489#0.1 164659489#0.2 164659489#0.4 164659489#1 164659489#1.1 164659489#1.3 164659489#1.4 164659489#1.6 164659489#2 164659489#2.1 164659489#2.3 164659489#2.4 164659489#2.6 -164659447#1 -164659447#1.3 -164659447#1.87 -34811472#2 -34811472#2.8 -34811472#2.70 -34811472#2.135 -34811472#2.192 -24024251#2 -24024251#2.7 -910274653#0 -930646447 -910274656 -210456949#12 -210456949#12.41 -210456949#11 -210456949#10 -210456949#9 -210456949#9.190 201989365#4 201989365#4.8 201989365#4.74 201989365#4.86 201989365#5 -25968350#3 -25968350#2 -25968350#2.1 -25968350#2.143 26379345#11 26379345#11.7 26379345#11.92 6384487#12 6384487#12.6 6384487#12.144 6384487#12.146 201989365#9 201989365#9.7 201989365#9.78 201989365#9.92 -6332538#5 -6332538#5.10 -6332538#5.14 -6332538#5.141 26379345#13 26379345#13.7 26379345#13.93 -25968351#1 -25968351#1.6 -25968351#1.77 -25968351#1.134 25968337#15 25968337#15.7 25968337#15.104 25968349#3 25968349#4 25968349#4.5 168627951#0 168627951#0.7 168627951#0.65 6342406#0 6342406#0.7 6342406#1 6342406#1.48 6342406#2 6342406#2.8 6342406#2.194 780990149#0 780990149#0.8 -6350384#1 -6350384#1.188 -6350384#0 -6350384#0.9 -6350384#0.196 168627951#3 168627951#4 168627951#5 168627951#6 168627951#7 168627951#8 6333782#0 6333782#1 -417696901#1 -417696901#1.55 -417696901#1.80 -417696901#0 417696931#0 417696931#1 417696931#1.1 417696931#1.37 417696914 25315667#0 25315667#1 25315667#1.70 25315667#2 25315667#3 -164659486#3 -164659486#2 -164659486#2.5 6350387 164659452#3 164659452#3.21 164659452#4 196739912#1 196739912#2 196739912#3 196739912#4 196739912#5 196739912#6 196739912#7 196739912#8 196739912#9 196739912#10 416111313#0 416111313#1 416111313#2 -574055688#20 -574055688#19 -164659443#2 -164659443#2.8 -164659443#2.9 -164659443#1 -164659443#0 -164659443#0.43 -164659443#0.45 164659506#1 164659506#1.1 164659506#1.2 164659506#1.4 164659506#1.5 164659506#2 164659506#2.1 164659506#2.2 164659506#2.4 164659506#2.5 164659506#3 164659506#3.1 164659506#3.2 164659506#3.4 164659506#3.5 164659506#3.7 -164659464 -164659464.3 -164659464.8 -164659464.75 -164659464.78 164659490#2 164659490#2.1 164659490#2.2 164659490#2.4 164659490#2.5 -164659471 -164659471.4 -164659471.5 -164659471.44 -164659471.85 -164659471.88 164659496#1 164659496#1.1 164659496#1.2 164659496#1.4 164659496#1.5 164659454#0 164659454#0.3 164659454#0.5 164659454#1 164659454#1.22 164659454#1.23 164659499#4 164659499#0 164659499#0.1 164659499#0.2 164659499#0.4 164659499#1 164659499#1.1 164659499#1.3 164659499#1.4 164659499#1.6 164659499#2 164659499#2.1 164659499#2.2 164659499#2.4 164659499#2.5 -164659444 -164659444.3 -164659444.5 -164659444.33 -164659444.83 -164659444.87 164659502#1 164659502#1.1 164659502#1.2 164659502#1.4 164659502#1.5 164659502#2 164659502#2.1 164659502#2.2 164659502#2.4 164659502#2.5 164659502#3 164659502#3.1 164659502#3.3 164659502#3.4 164659502#3.6 -164659484 -164659484.3 -164659484.44 -164659484.78 164659488#2 164659488#2.1 164659488#2.2 164659488#2.4 164659488#2.5 -164659470 -164659470.3 -164659470.38 -164659470.87 164659491#1 164659491#1.1 164659491#1.2 164659491#1.4 164659491#1.5 164659491#2 164659491#2.1 164659491#2.3 164659491#2.4 164659491#2.6 164659491#3 164659491#3.1 164659491#3.3 164659491#3.4 164659491#3.6 -164659474#3 -164659474#3.3 -164659474#2 -164659474#2.14 -164659474#1 -164659474#1.37 -164659474#0 -164659474#0.54 164659494#2 164659494#2.1 164659494#2.3 164659494#2.4 164659494#2.6 164659494#3 164659494#3.1 164659494#3.3 164659494#3.4 164659494#3.6 164659494#4 164659494#0 164659494#0.1 164659494#0.3 164659494#0.5 164659434 164659434.4 164659434.87 164659508#3 164659508#3.1 164659508#3.3 164659508#3.4 164659508#3.6 -6359161#1 -6359161#1.3 -6359161#1.5 -6359161#1.44 -6359161#0 -6359161#0.43 -6359161#0.83 22370934#1 22370934#1.86 22370934#1.92 22370934#2 22370934#2.6 22370934#3 22370934#4 415883911#0 415883911#0.30 415883911#1 201989350#0 201989350#1 201989350#1.5 201989350#1.21 201989350#1.148 201989350#1.162 25968348#2 25968348#2.7 25968348#2.86 25968348#2.91 164659492#3 164659492#3.1 164659492#3.3 164659492#3.4 164659492#3.6 164659492#4 164659492#0 164659492#0.1 164659492#0.2 164659492#0.4 164659492#1 164659492#1.1 164659492#1.3 164659492#1.4 164659492#1.6 164659480 164659480.4 164659480.70 164659480.134 164659480.219 -6343678#4 -6343678#3 -6343678#2 -6343678#1 -6380696#1 -6380696#1.6 -6380696#1.239 -25968348#0 -25968348#0.6 -25968348#0.55 -25968348#0.67 -25968348#0.75 -25968348#0.80 25968353#2 25968353#2.1 25968353#2.2 25968353#2.3 25968353#2.4 25968353#2.5 25968353#2.6 25968353#3 25968353#3.1 25968353#3.2 25968353#3.3 25968353#3.4 -25968346#2 -25968346#2.3 -25968346#2.8 -25968346#1 -25968346#0 -25968346#0.40 25968357#2 25968357#2.1 25968357#2.3 25968357#2.4 25968357#2.6 25968357#3 25968357#3.1 25968357#3.3 25968357#3.4 25968357#3.6 -25968345#3 -25968345#3.3 -25968345#3.87 -25968345#2 -25968345#2.7 -25968345#2.93 -25968345#1 -25968345#1.7 -25968345#0 -25968345#0.49 25968359#2 25968359#2.1 25968359#2.2 25968359#2.4 25968359#2.5 25968359#2.7 25968350#0 25968350#0.3 -25968337#10 -25968337#9 -25968337#8 -25968342#1 -25968342#0 -25968342#0.80 25968344#3 25968344#3.1 25968344#3.2 25968344#3.4 25968344#3.5 25968344#3.6 -190017518#1 -190017518#1.3 -190017518#1.86 -24028181#5 -24028181#5.8 -24028181#4 -24028181#4.7 -24028181#3 -26379345#7 -26379345#7.22 -26379345#7.36 -26379345#7.76 -26379345#7.91 -26379345#7.92 999534620#30 999534620#30.7 999534620#30.12 999534620#30.55 999534620#31 999534620#32 999534620#33 999534620#34 999534620#34.18 999534620#35 -415876793#1 -415876793#0 -415876793#0.17 -201989366 -937946572#1 -937946572#0 -43050009#1 -43050009#1.55 -43050009#0 423105088#0 423105088#1 541351341 541351341.163 -233699763#2 -233699763#2.7 -233699763#2.9 -233699763#2.71 -233699763#2.92 -233699763#1 -233699763#1.11 -233699763#0 -541061780#2 -541061780#1 -541061780#1.84 -541061780#0 -541061780#0.6 -27767100#1 -27767100#0 -296976966#1 -296976966#0 -574399185 -574399185.38 -617930717 -617930717.6 -679424764#2 195430727#0 195430727#1 195430727#1.7 195430727#1.37 -196599890#1 -196599890#0 -34815522#2 -34815522#1 -34815522#1.32 -34815522#1.69 -34815522#0 -233700520#6 -233700520#5 -233700520#4 -233700520#3 -233700520#2 -233700520#2.25 -43049945#5 -43049945#5.8 -43049945#5.72 -43049945#4 -43049945#3 -43049945#2 -43049945#1 -43049945#0 -43049945#0.18 -43049945#0.37 -43049945#0.39 -415876799#1 -415876799#1.7 -415876799#0 -43049946#1 -43049946#0 -195595372#2 -195595372#1 -195595372#0 -415876803#2 -415876803#1 -415876803#0 415876796#0 415876796#1 415876796#2 296976973#0 296976973#0.2 296976973#0.6 296976973#1 296976973#1.128 296976973#2 -541350929#1 -541350929#0 -541350929#0.84 541351105 541351105.6 541351105.10 28076017 541351104#0 541351104#1 541351104#2 541351104#2.61 541351104#2.62 541351104#2.64 -423105092#1 -423105092#1.8 -423105092#0 -423105092#0.87 -423105092#0.89 -423105092#0.94 22649938#0 22649938#0.2 22649938#0.5 22649938#0.9 22649938#0.104 22649938#0.117 22649938#1 -999534620#28 -999534620#28.82 -999534620#28.85 -25968337#5 -25968337#5.9 -25968337#5.10 -25968337#5.195 164659440#2 164659440#2.84 164659440#2.90 164659440#2.94 -6404288#4 -6404288#4.3 -6404288#4.6 -6404288#4.10 -6404288#4.192 -164659430#1 -164659430#1.92 -25968337#3 -25968337#3.7 -25968337#3.10 -25968337#3.194 -23874081#0 -23874081#0.8 -23874081#0.91 541350678 541350678.6 541350678.193 6373282#0 6373282#0.6 6373282#0.193 6373282#1 6373282#1.8 -999534620#26 -999534620#26.51 -999534620#26.67 -999534620#26.74 -999534620#25 -999534620#24 -999534620#24.3 -541349569 -541349569.193 -6356133#2 -6356133#2.8 -6356133#2.193 -6356133#1 -6356133#1.9 -6356133#0 -541349570 -819368215#0 -819368215#0.76 415870533#8 415870533#8.6 415870533#9 415870525#0 415870525#0.13 415870525#1 415870525#2 22370937#0 22370937#1 22370937#2 22370937#3 22370937#3.6 22370937#4 22370937#4.6 22370937#5 22370937#5.11 22370937#6 22370937#7 415870519#0 415870519#1 415870531#0 415870531#1 415870531#1.26 415870531#2 415870531#3 415870531#4 415870526#0 415870526#0.35 415870526#1 415870529#0 415870529#1 415870529#1.19 415870529#2 415803769#0 415803769#1 195433879#0 195433879#1 195433879#1.15 195433879#1.152 195433879#1.162 22370935#0 22370935#0.12 22370935#0.43 22370935#0.49 22370935#1 164658838#0 6339229#0 6339229#1 195433868#2 195433868#2.85 -30832687#1 -30832687#1.7 -30832687#1.9 6336003#0 6336003#0.14 6336003#1 6336003#1.14 6336003#1.28 6336003#1.78 6346111#3 6346111#3.91 6346111#3.92 6346111#4 6346111#4.7 6346111#4.9 422792872#2 -6333700#3 -6333700#3.6 -6333700#3.89 -6333700#3.91 -6333700#2 -6333700#2.7 -6333700#2.9 -6333700#1 -6333700#1.92 -6333700#1.94 -6398141#0 -6398141#0.8 -6398141#0.10 -6398141#0.51 -6398141#0.78 -6398141#0.167 -6346111#1 -6346111#0 -168627943#0 -24164436 -24164436.57 -24164436.115 -113629978#3 -113629978#3.7 -113629978#2 -113629978#2.67 6336821#1 6336821#2 6336821#3 6336821#3.34 6336821#4 -574396276#1 -574396276#0 -574396275 6349061#0 6349061#0.8 -6344379 -6344379.51 -6344379.62 -6344379.71 6349061#3 6335796#4 6335796#4.59 -22372605#5 -22372605#5.9 -22372605#5.15 -22372605#5.22 -22372605#5.34 -22372605#5.61 -22372605#4 -22372605#3 -22372605#2 -22372605#2.28 -22372605#2.31 -22372605#1 -22372605#0 -22372605#0.11 -422792870 -422792870.8 -422792870.23 -422792870.38 -422792870.77 -422792870.83 -422792870.100 6376847#3 6376847#3.7 6376847#3.9 6376847#4 6376847#4.98 233698097#6 233698097#6.6 233698097#6.121 233698097#7 233698097#7.11 233698097#8 6329575#3 6329575#3.8 6329575#3.92 -6344903#5 -6344903#5.7 -6344903#5.86 -6344903#4 -6344903#4.11 -6344903#4.126 6376847#6 6376847#6.6 22372583#10 22372583#10.7 22372583#11 22372583#11.59 22372583#12 22372583#13 22372583#14 22372583#14.12 22372583#15 22372583#15.68 6329575#5 6329575#5.9 6329575#5.40 -23874084#2 -23874084#1 -23874084#0 -23874084#0.61 193991030#2 193991030#2.1 193991030#2.3 193991030#2.4 193991030#2.6 193991030#3 193991030#3.1 193991030#3.3 193991030#3.5 193991030#3.6 -23874083#1 -23874083#1.2 -23874083#0 -23874083#0.71 -189843767#0 -189843767#0.120 -6330089#4 -6330089#4.9 -6330089#4.96 -6330089#3 -6330089#3.6 -6330089#2 -6330089#2.46 -233698097#3 -233698097#3.7 -233698097#2 -233698097#2.7 -233698097#1 -233698097#1.6 -233698097#1.70 -22372604 -22372604.7 -22372604.194 22372606 22372606.6 22372606.13 22372606.20 -541341824 -541341824.8 -541341824.10 -541341824.25 -541341819 -42639731#3 -27008007#6 -27008007#5 -27008007#4 -27008007#4.18 415803773#0 415803773#0.8 415803773#1 415803773#2 415803773#3 415803772 415803777 415803775#0 415803775#1 415803774#0 415803774#1 415803774#1.27 415803774#2 203164333 203164333.22 189141431#11 189141431#11.8 189141431#12 189141431#13 189141431#13.69 772677033#0 772677033#0.197 35602546#5 35602546#5.6 35602546#6 35602546#6.19 35602546#6.26 35602546#6.29 35602546#7 35602546#8 35602546#8.6 772677034#1 772677034#1.7 772677034#1.23 772677034#1.60 772677034#1.68 772677034#1.76 24164443#1 24164443#1.69 24164443#1.124 -27008007#9 -27008007#9.18 772677036#3 22372609#2 22372609#2.2 22372609#2.4 22372609#2.6 22372609#2.9 -541339973#6 772677033#3 772677033#4 772677033#4.71 772677033#4.73 772677033#5 772677033#5.7 772677033#5.9 772677033#5.57 422792869#1 422792869#1.58 -22372608#1 -22372608#1.90 6347540 6347540.48 -188283697 -188283697.8 -188283697.17 188283693#0 188283693#0.8 188283693#1 188283693#2 188283693#3 188283693#4 -593529471 -593529471.7 -593529471.11 -593529471.16 -593529471.61 -221321162#1 -221321162#1.19 -221321162#1.248 -221321162#1.250 21485403#5 21485403#5.8 21485403#5.79 21485403#5.90 21485403#6 21485403#6.7 21485403#6.18 6335787#1 6335787#1.7 6335787#1.70 6335787#1.79 -593529470#1 24297035#2 24297035#2.9 113629978#0 113629978#0.42 113629978#0.60 113629978#0.81 113629978#0.100 113629978#0.181 -6335796#0 -6335796#0.6 -6335796#0.88 164658209 195595366#0 195595366#0.3 -6338840#2 -6338840#2.8 -6338840#2.10 -6338840#2.17 -6338840#2.26 -6338840#2.58 -6338840#2.75 -6338840#2.100 -6338840#2.124 -6338840#1 6404744 6404744.18 6404744.53 6404744.58 6404744.65 6404744.71 6404744.77 6404744.95 6404744.109 6404744.121 195595366#7 195595366#8 195595366#8.11 195595366#8.14 6344917#0 6344917#0.8 6344917#0.18 6344917#0.21 6344917#0.33 6344917#1 6344917#1.13 6344917#1.26 6344917#2 6344917#3 6344917#3.16 6344917#3.35 6344917#3.69 6344917#3.86 6344917#3.102 6344917#3.117 6344917#3.134 6344917#3.174 6344917#3.192 6344917#3.212 6344917#3.232 7913800#1 7913800#1.15 7913800#1.27 7913800#1.41 7913795#0 7913795#0.14 7913795#0.30 541338972#1 541338972#2 541338972#2.7 541338972#2.27 422947664 422947664.16 422947664.30 -422947667 -422947667.11 -774602460#1 -774602460#1.6 -774602460#1.9 -774602460#0 -6359789#3 -6359789#3.10 -6359789#3.200 -6359789#3.217 6340642#0 6340642#0.35 6340642#0.77 6340642#1 6340642#1.23 6340642#1.55 6340642#2 6340642#2.42 -306210483#2 241532453#8 241532453#8.31 241532453#9 241532453#9.19 241532453#9.32 -28842636#1 -28842636#1.13 -28842636#0 28842635 28842635.7 -6395979#2 -6395979#1 -6395979#0 -6395979#0.26 184118602#2 184118602#2.10 184118602#2.56 184118602#2.61 203317483#0 203317483#0.9 203317483#1 203317483#1.2 -195846387#4 -195846387#3 -195846387#2 -195846387#1 -195846387#0 -195846387#0.65 -195846387#0.81 -195846387#0.94 -195846387#0.109 -195846387#0.120 -195846391 -195846391.24 -195846391.60 -195846391.76 -195846391.86 -195846391.93 -195846391.107 -6371262#1 -6371262#1.10 -6371262#1.91 -6371262#0 -6371262#0.82 -6371262#0.138 -6371262#0.145 -6371262#0.146 195846386#0 195846386#1 195846386#2 195846386#2.11 195846386#2.21 195846380#0 195846380#1 195846380#1.17 195846380#2 184118600 417714683 184118599 415803800 6339431#0 6339431#0.10 6339431#0.22 6339431#1 6339431#2 6339431#3 6339431#4 6339431#5 -241532453#5 -241532453#4 -241532453#4.8 -241532453#3 -241532453#3.21 -241532453#3.58 -6355822#1 -6355822#1.10 -6355822#0 -6355822#0.35 -6355822#0.37 -21482914#13 -21482914#13.13 -21482914#13.86 6392193#7 6392193#7.12 6392193#7.14 6392193#7.155 -241532453#1 -241532453#1.24 -241532453#1.57 -241532453#1.85 -6359789#1 -6359789#1.12 -6359789#0 -6359789#0.23 -6359789#0.25 -21482914#7 -21482914#7.13 -21482914#6 -21482914#6.14 -21482914#5 -21482914#5.1 -21482914#5.29 -21482914#5.41 -21482914#5.80 -21482914#4 -21482914#4.15 -21482914#4.24 -21482914#4.72 -21482914#4.82 -21482914#3 -184377911 -184377911.5 -184377911.11 -184377911.13 -194717217#4 6344504#2 6344504#2.31 6344504#2.56 6336594 6336594.86 6336594.99 184377915#1 184377915#1.161 6392193#4 6392193#4.73 30877197#1 30877197#1.6 30877197#2 30877197#3 30877197#4 -195846385#1 -195846385#0 -195846385#0.10 -195846383 -195846383.6 -6339423#4 -6339423#4.67 -6339423#4.73 635517772 635517772.12 635517773 635517773.7 35602471#0 35602471#0.6 35602471#0.164 35602471#0.189 -6392193#1 -6392193#1.6 -6392193#1.14 -6392193#1.21 -6392193#1.28 -6392193#1.34 -6392193#1.40 -6392193#1.52 -6392193#1.65 -6392193#1.77 -6392193#1.89 -6392193#1.105 -6392193#1.116 -6392193#1.126 -6392193#0 -6392193#0.9 -6392193#0.20 -6392193#0.32 194717217#1 194717217#1.96 -304320225#1 -304320225#1.69 -6334819#1 -6334819#1.7 -6334819#1.12 304320224#1 304320224#1.68 304320224#2 304320224#2.7 304320224#2.15 -6339423#2 -6339423#2.7 -6339423#2.18 -6339423#2.26 -6339423#1 -6339423#1.143 -6339423#1.162 6370187#2 6370187#3 6370187#4 6370187#4.44 6370187#4.68 6370187#4.86 6370187#4.98 6370187#4.107 6370187#4.112 6393008#1 6393008#1.19 6393008#1.45 6393008#1.123 6393008#1.136 6393008#1.149 6393008#1.165 6393008#1.182 6393008#1.236 6393008#1.252 304320224#4 6371879 6371879.17 199296727 199296727.14 199296712#0 199296712#0.8 199296712#0.97 199296712#1 199296712#1.8 199296712#1.42 199296712#1.53 199296712#1.66 199296712#1.80 195846389#1 195846389#1.103 -690998670#1 -690998670#1.106 -690998670#1.122 -690998670#1.134 -690998670#1.147 -690998670#0 -690998670#0.21 -690998670#0.35 -690998670#0.48 -690998670#0.84 -690998671 -690998671.5 -690998671.15 -690998671.24 -6348071#4 -6348071#4.11 -6348071#4.29 -6348071#3 -6348071#3.22 -6348071#3.50 -6348071#3.67 -6348071#3.89 -6348071#3.107 -6348071#2 -6348071#2.9 -6348071#2.52 -6348071#2.59 -6348071#2.66 -6348071#2.73 -6348071#2.83 -6348071#2.95 -6348071#2.100 -6348071#2.104 -6348071#2.109 -6348071#1 6369430 6369430.68 6348253#0 6348253#0.5 6348253#0.77 6348253#0.91 6348253#1 6348253#1.16 6348253#1.28 6348253#1.41 6348253#1.54 6348253#1.67 6348253#1.116 6348253#1.122 6348253#1.128 6348253#1.135 6348253#1.137 304320224#9 304320224#9.180 697544427 697544427.10 697544427.18 697544426 697544426.10 697544426.174 697544426.178 6348657#6 6348657#6.11 6348657#6.23 6348657#6.33 6348657#6.63 6348657#7 6348657#7.19 6348657#8 6348657#8.55 6348657#8.76 6348657#8.98 6348657#9 -199296715#2 -199296715#2.9 -199296715#2.17 -199296715#1 -199296715#1.42 -199296715#1.70 -199296715#1.100 -199296715#1.134 -199296715#1.153 -199296715#1.160 -199296715#1.165 -199296715#1.177 -199296715#1.187 -199296715#1.199 -199296715#1.213 -199296715#1.228 -199296715#1.265 6377232#0 6377232#0.9 6377232#0.46 6377232#0.71 6377232#1 6377232#1.10 6377232#1.43 6377232#1.68 6377232#1.92 6377232#1.108 6377232#1.118 6377232#1.132 6377232#1.146 6377232#1.153 6377232#1.162 6377232#1.169 6377232#2 6377232#2.10 6377232#3 6377232#3.7 6377232#3.16 6377232#3.31 6377232#3.64 6377232#3.68 6377232#3.72 6377232#3.80 434988146 434988146.5 434988146.10 434988147 434988147.26 434988147.44 434988147.62 434988147.83 434988147.108 434988147.123 434988147.143 434988145 434988148#0 434988148#0.5 434988148#1 434988148#1.9 434988148#1.26 434988148#2 434988148#2.64 434988148#2.82 434988148#2.90 184150674#0 184150674#0.13 7705915#0 7705915#0.5 7705915#1 7705915#1.98 7705915#1.102 415884037#1 234215528#0 234215528#1 -415884034#1 -415884034#0 -415884034#0.8 -415884032#1 -415884032#0 742360849#0 742360849#1 742360849#1.8 -30909405#1 -30909405#1.35 28842636#4 28842636#4.207 28842636#4.218 28842636#4.220 28842636#4.222 -422947669#1 -422947669#1.94 30832716#1 30832716#1.7 30832716#2 30832716#2.91 30832716#2.97 30832716#2.104 6339425 6339425.100 6339425.108 6339425.118 6339425.128 -30832948#5 -30832948#5.20 -30832948#5.71 -30832948#3 6346104#0 6346104#0.104 6346104#1 6346104#1.6 168627943#2 168627943#4 168627943#5 168627943#6 168627943#6.3 168627943#6.47 168627943#6.62 168627943#6.119 7840628#1 7840628#1.7 7840628#2 7840628#2.193 195433868#7 195433868#7.6 195433868#7.93 195433868#8 195433868#8.6 195433868#8.87 195433868#9 415884012#0 415884012#1 415884012#1.17 363370643#0 363370643#0.12 363370643#0.119 363370643#0.167 -24314605#4 -24314605#4.7 -24314605#4.8 -24314605#3 -24314605#2 30909407#3 -22370936#3 -22370936#2 -22370936#2.191 30832687#5 7841698#2 7841698#2.8 7841698#3 7841698#4 7841698#4.7 7841698#4.8 7841698#5 7841698#5.31 7841698#5.33 -363370643#3 -363370643#3.7 -363370643#2 -363370643#2.27 22370936#6 22370936#6.7 22370936#6.13 22370936#6.194 22370936#6.195 22370936#7 22370936#7.5 22370936#7.7 22370936#8 22370936#8.6 22370936#8.8 415884022#3 415884016 415884016.15 415884016.19 202485372#0 202485372#0.7 202485372#0.46 202485372#1 -6390755#2 -6390755#2.7 -6390755#2.9 -6390755#1 -6390755#0 -6390755#0.19 -6390755#0.104 -6390755#0.106 -23089173#0 -23089173#0.4 -23089173#0.22 -23089173#0.31 -23089173#0.41 -23089173#0.49 -23089173#0.55 -23089173#0.93 -23089173#0.95 415882499#3 415882499#3.5 415882499#4 415882499#5 415882499#6 415882499#7 415882499#8 415882497#0 415882497#1 415884018#0 415884018#1 415884018#2 415884018#2.82 415884018#3 -574404433#1 -574404433#0 -574404432 -6398141#7 -6339837#4 -6339837#4.6 -6339837#3 -6339837#2 -6339837#1 -6339837#0 -6339837#0.38 -32456218#4 -32456218#3 -32456218#3.52 -22277720#2 -6402601#3 -6402601#3.93 -6388365#0 -6388365#0.7 -6388365#0.178 -6388365#0.190 -6388365#0.204 -6388365#0.217 -6356111#0 -6356111#0.89 32866333 32866333.24 32866333.46 26723188#0 26723188#0.81 26723188#0.104 26723188#1 26723188#1.7 26723188#1.30 26723188#1.171 26723188#2 32866188#0 32866188#1 32866188#1.15 32866188#1.175 32866188#1.186 -6398141#3 -6398141#3.7 -6398141#3.10 -6398141#3.93 -24164451#3 -24164451#3.6 -24164451#3.8 -24164451#3.104 -24164451#2 -24164451#2.59 -24164451#1 -24164451#1.7 -24164451#1.193 -24164451#0 24164453 24164453.10 24164453.23 32456680 32456680.2 -422947668 -422947668.11 -233686193 -233686193.8 -196750859#2 -196750859#1 -196750859#1.40 6378198#0 6378198#0.13 6378198#0.178 6378198#0.195 6378198#1 6378198#2 6378198#3 6378198#3.3 6378198#4 6378198#4.3 697544433#2 697544433#2.14 6351007#0 6351007#0.29 6351007#0.46 6351007#0.52 6351007#0.56 6351007#0.62 6351007#0.66 6351007#0.72 6351007#0.77 6351007#0.83 6351007#0.89 6351007#0.98 6351007#1 -6332167#0 -6332167#0.10 6386692#3 6386692#3.3 6386692#3.6 6386692#3.9 6338567#0 6338567#0.10 6338567#0.118 6338567#1 6338567#1.107 6338567#2 6338567#3 6338567#3.80 -11154779#8 -11154779#8.6 -11154779#8.12 -11154779#7 -11154779#7.111 -11154779#7.164 -11154779#7.242 -11154779#7.257 -11154779#7.274 -11154779#7.289 -11154779#7.297 -11154779#7.309 -11154779#7.321 -11154779#7.330 -11154779#7.340 -11154779#7.353 -11154779#7.367 -11154779#7.381 -11154779#7.397 -11154779#7.422 6358815#1 6358815#1.12 6358815#1.27 6358815#1.43 6358815#1.56 6358815#1.69 6358815#1.82 6358815#1.118 6358815#1.128 6358815#1.136 6358815#1.143 6358815#1.151 6358815#1.159 6358815#1.173 6358815#1.183 193256686#17 193256686#17.12 193256686#17.22 193256686#17.56 193256686#17.72 193256686#18 193256686#18.11 193256686#18.14 193256686#18.23 193256686#18.36 193256686#18.49 193256686#18.64 193256686#18.77 193256686#18.90 193256686#18.121 193256686#18.152 193256686#18.172 193256686#18.180 193256686#18.196 193256686#18.203 6338567#5 6338567#5.8 6338567#6 6338567#7 6338567#7.90 6338567#8 6338567#8.11 6338567#9 6338567#10 6339085#5 6339085#5.26 6339085#5.42 6339085#5.53 6335820 6335820.8 6335820.17 6335820.61 6335820.74 6335820.81 6335820.90 6335820.96 6335820.103 6335820.110 6335820.134 6335820.141 -6331171#1 -6331171#1.23 -6331171#1.39 -6331171#1.56 -6331171#1.78 6338567#12 190579811#2 190579811#2.12 190579811#2.14 190579811#2.24 190579811#2.35 190579811#2.46 190579811#2.50 190579811#3 190579811#3.9 190579811#3.19 190579811#3.32 190579811#3.45 190579811#3.54 190579811#3.64 190579811#4 190579811#4.13 190579811#4.26 190579811#4.44 190579811#4.60 190579811#5 190579811#5.62 190579811#5.81 190579811#6 190579811#6.15 190579811#6.36 190579811#6.53 190579811#6.66 190579811#7 190579774#0 190579774#0.14 190579774#1 190579774#1.2 190579774#2 190579774#2.13 190579774#2.29 190579774#2.49 190579774#2.110 190579807 190579807.16 190579807.27 190579807.41 190579807.54 190579807.69 190579823 190579823.13 190579823.27 616457859#0 616457859#0.16 616457859#0.21 616457859#1 190579799#0 190579799#0.31 190579799#0.51 190579799#0.67 190579799#0.90 190579799#0.110 190579799#1 190579799#1.5 190579799#1.15 6359248 6359248.79 -6348426#3 -6348426#3.15 -6348426#2 -6348426#2.32 -6348426#2.44 -6348426#2.56 -6348426#2.76 -6348426#2.97 -6348426#2.106 -6348426#2.115 -6340346#2 -6340346#2.15 -6340346#2.27 -6340346#2.34 -6340346#2.41 -6340346#2.55 -6340346#2.86 -6340346#2.104 -6340346#2.124 -6340346#1 -6391261 6397410#1 -6395394#1 -6395394#0 -6333513#9 -6333513#8 -6333513#7 -6333513#7.11 -6333513#6 -6333513#6.11 -6333513#6.30 -6333513#6.35 -6333513#5 -6333513#5.21 -6333513#5.38 -6333513#5.54 -6333513#5.75 -6333513#5.93 -6333513#5.107 -6333513#5.123 -6333513#4 -6333513#3 -6333513#3.137 -11043363#3 -11043363#3.7 -11043363#2 -11043363#1 -11043363#0 7857575#0 7857575#0.10 7857575#0.24 7857575#0.39 7857575#0.57 7857575#0.75 7857575#0.88 7857575#0.126 7857575#0.144 7857575#0.146 7857575#0.162 7857575#0.184 7857575#0.212 7857575#0.218 7857575#0.224 7857575#0.229 7857575#0.241 7857575#0.275 7857575#0.303 7857575#0.315 7857575#0.324 7857575#0.326 7857575#0.339 7857575#0.350 7857575#0.357 7857575#0.360 7857575#0.410 7857575#1 7857575#1.42 7857575#1.66 7857575#1.85"/>
</vehicle>
<vehicle id = "veh5" type= "veh_passenger" depart="7210" >
[...]
</vehicle>
<vehicle id = "veh12" type= "veh_passenger" depart="21630" >
<route edges =" 797309093 797309091#0 797309091#0.10 797309091#1 797309091#1.7 797309091#2 797309091#2.10 797309091#2.15 797309091#3 377635148 377635148.3 377635148.5 377635149#0 377635149#0.19 377635149#0.28 377635149#0.40 377635149#0.54 -437142996 -437142996.8 -437142997 -437142997.7 -437142997.19 -437142997.28 -437142995 -6336839 -6336839.8 -6336839.22 -6336839.37 -6336839.47 -6336839.56 -6336839.71 -6336843 -6336843.11 -6336843.20 -6336843.52 -785854260#4 -785854260#4.6 -785854260#4.65 -763290363 -763290363.11 -24620691#4 -24620691#3 -24620691#2 -24620691#1 -6338310#3 -6338310#3.7 -6338310#2 -6338310#2.89 -188703042#0 -188703042#0.9 -188703042#0.21 -188703049 -201989352#2 -201989352#2.8 -201989352#1 -201989352#1.9 -201989352#1.29 -201989352#0 -195430724#15 -195430724#14 -195430724#14.20 -195430724#13 -195430724#13.78 -195430724#12 -195430724#12.8 -195430724#12.12 -195430724#11 -195430724#11.17 -195430724#9 -195430724#8 -195430724#7 -195430724#7.8 -195430724#6 -195430724#6.35 -168627934#1 -168627934#1.8 -168627934#0 -168627934#0.7 -7783135#3 -7783135#3.7 -164659473#10 -164659473#10.7 -164659473#9 -164659473#8 -164659473#8.12 -164659473#7 -164659473#7.13 -164659473#6 -164659473#6.16 -164659473#5 -164659473#5.13 -164659473#4 -6404484 -24024250#4 -24024250#4.80 -25316538#0 21455622#0 21455622#0.7 21455622#1 196779227#0 196779227#0.7 196779227#1 196779227#2 196779227#3 541335063#0 541335063#1 541335063#2 415878804#0 415878804#1 415878803#0 415878803#1 541334900#0 541334900#1 541334900#2 541334900#3 541334900#4 541334900#5 541334900#6 698994092#3 698994092#4 698994092#4.84 6348015 6348015.7 761330890 761330889#0 761330889#1 761330889#2 761330889#3 761330889#3.83 761330889#4 517593873#2 517593873#2.29 517593873#3 415876778 22278225#0 22278225#0.24 22278225#1 22278225#1.6 22278225#1.16 22278225#1.26 196779231#0 196779231#0.12 196779231#1 196779231#1.17 21452694#0 21452694#0.5 21452694#0.7 21452694#0.9 21452694#0.14 21452694#0.21 21452694#0.27 21452694#0.101 21452694#1 21452694#1.9 21452694#1.14 21452694#1.27 21452694#2 415878130#0 415878130#1 415878131#0 415878131#1 682209186 196779232 196779232.9 415878126 415878126.6 415878137#0 415878137#1 194859188#0 194859188#1 194859188#1.24 415878134#0 415878134#1 202177316#0 202177316#1 202177316#2 415878127 415878127.3 415878136#0 415878136#1 -415876790#1 -415876790#0 -756453993 -559526390 -559526390.35 -164658213#11 -164658213#11.10 -164658213#11.12 -164658213#10 -164658213#10.55 -164658213#9 -164658213#8 24314605#15 24314605#15.92 24314605#15.94 24314605#16 24314605#16.7 24314605#16.11 24314605#16.82 24314605#16.86 -168627975 -168627975.12 -168627975.22 -168627975.32 -168627975.40 22273558 22273558.11 22273558.17 22273558.33 22273558.45 22273558.58 22273558.66 22273558.77 22273558.85 22273558.92 22273558.103 22273558.113 22273558.118 -7990899#2 -7990899#2.27 -7990899#1 -7990899#0 -7990899#0.77 288127321#0 -6339575#4 -6339575#4.7 -6339575#3 -6339575#3.102 -6339575#3.107 -22273541#2 -22273541#2.12 -22273541#2.93 -22273541#2.95 -22273541#1 -22273541#1.7 -22273541#1.11 -22273541#0 -22273541#0.41 -22273541#0.43 22273546#3 22273546#3.1 22273546#3.3 22273546#3.4 22273546#3.6 22273546#0 22273546#0.1 22273546#0.3 22273546#0.4 22273546#0.6 -32618074#8 -32618074#8.3 -32618074#8.5 -32618074#7 -32618074#6 -32618074#5 -32618074#4 -32618074#4.52 -164658213#3 -164658213#2 -164658213#1 -164658213#0 -164658213#0.113 -36985595#2 -36985595#2.8 -36985595#2.116 -36985595#2.205 -36985595#1 -36985595#0 -36985594 -22278229#3 -22278229#2 -22278229#1 -22278229#0 -22278229#0.17 -22278228 -22278228.7 -22278228.63 22278226 22278226.10 22278226.56 22278227#0 541337642 541337642.7 -6375690 -6375690.18 -6375690.45 -6375690.64 -6375690.85 -6375690.105 -6375690.129 -6375690.151 -6375690.165 -541337829 -541337829.64 -541337829.72 -541337829.78 -541337829.80 30832954#1 30832954#1.83 30832954#1.105 30832954#1.115 30832954#1.126 30832954#1.148 30832954#1.165 30832954#1.179 30832954#1.191 30832954#1.194 -22277721 -22277721.9 -22277721.94 -22277721.101 -22277721.104 22277720#0 22277720#0.2 22277720#0.3 22277720#0.6 22277720#0.36 22277720#0.50 22277720#1 22277720#1.7 22277720#1.94 22277720#1.194 22277720#2 -32456218#2 -32456218#2.7 -32456218#2.93 6388365#2 6388365#2.7 6388365#2.193 6388365#2.195 6398141#5 6398141#5.6 6398141#5.93 6398141#6 6398141#6.7 6398141#6.93 6339837#5 6339837#5.7 6339837#6 6339837#6.92 -415882499#3 -415882499#3.93 -415882499#2 -415882499#2.8 -415882499#2.94 -415882499#1 -415882499#1.7 -415882499#1.89 -415882499#0 415884012#0 415884012#1 415884012#1.17 363370643#0 363370643#0.12 363370643#0.119 363370643#0.167 24314605#5 24314605#5.7 24314605#5.10 24314605#6 24314605#6.91 23089173#2 23089173#2.7 23089173#2.10 23089173#2.43 23089173#2.49 23089173#2.61 23089173#2.72 23089173#2.93 22370936#7 22370936#7.5 22370936#7.7 22370936#8 22370936#8.6 22370936#8.8 415884024#2 415884024#2.7 415884024#3 415884024#3.52 -7841698#8 -7841698#8.8 -7841698#8.9 -7841698#8.196 -7841698#8.198 -7841698#7 -7841698#7.7 -7841698#7.8 -7841698#6 -7841698#6.90 -7841698#6.92 -7841698#5 -7841698#5.7 -7841698#5.9 -7841698#4 -7841698#4.150 -7841698#4.151 -30909407#4 -22370936#3 -22370936#2 -22370936#2.191 -30832687#4 -30832687#4.92 -1014203284#2 -1014203284#1 -1014203284#0 -1014203284#0.1 415870529#0 415870529#1 415870529#1.19 415870529#2 415803769#0 415803769#1 195433879#0 195433879#1 195433879#1.15 195433879#1.152 195433879#1.162 188858625#0 188858625#1 574396276#2 574396276#3 164658838#0 164658838#1 426767275 426767274 -24164436 -24164436.57 -24164436.115 -113629978#3 -113629978#3.7 -113629978#2 -113629978#2.67 -113629978#1 -113629978#1.7 -113629978#1.212 6335796#1 6335796#1.6 6335796#1.88 6335796#2 6335796#2.8 -6392980 -6392980.91 -6399617#0 -24297044#9 -24297044#9.23 -24297044#8 -24297044#7 -24297044#6 -24297044#6.9 -24297044#6.15 -24297044#6.21 -24297044#5 -24297044#4 -24297044#3 -24297044#2 -24297044#1 6334712#0 6334712#0.8 6334712#0.99 422792869#4 422792869#4.78 6376847#3 6376847#3.7 6376847#3.9 6376847#4 6376847#4.98 6376847#5 6376847#5.6 -6344903#3 -6344903#3.7 -6344903#3.124 -6330089#3 -6330089#3.6 -6330089#2 -6330089#2.46 -6330089#1 -6330089#1.7 -6330089#1.72 -6330089#1.138 -422792869#2 -422792869#2.6 -422792869#2.66 -422792869#2.70 -422792869#1 -422792869#1.18 -422792869#0 -422792869#0.6 -422792869#0.70 22372606 22372606.6 22372606.13 22372606.20 22372602#1 22372602#1.72 -772677033#4 -772677033#4.8 -772677033#4.9 -541341325 -541341819 -42639731#3 -42639731#2 -42639731#2.113 -42639731#2.192 -42639731#1 -42639731#1.7 -42639731#1.134 -42639731#1.196 -42639731#1.197 189141431#13 189141431#13.69 772677033#0 772677033#0.197 35602546#5 35602546#5.6 35602546#6 35602546#6.19 35602546#6.26 35602546#6.29 772677036#1 772677036#1.7 772677036#2 27008007#9 27008007#9.69 24164443#2 24164443#2.10 24164443#2.28 24164443#2.137 24164443#2.139 22372609#1 22372609#1.1 22372609#1.3 22372609#1.5 22372609#2 22372609#2.2 22372609#2.4 22372609#2.6 22372609#2.9 22372609#3 22372609#3.1 22372609#3.3 22372609#3.5 22372608#0 22372608#0.3 22372608#0.6 22372608#0.12 22372608#0.174 22372608#0.175 188283694 188283694.28 188283693#0 188283693#0.8 188283693#1 188283693#2 188283693#3 188283693#4 593529469#0 593529469#1 593529469#2 593529470#0 593529470#0.32 593529470#1 -6335787#1 -6335787#1.7 -6335787#1.16 -6335787#1.80 21485403#7 21485403#7.7 21485403#7.65 195595366#0 195595366#0.3 -6338840#2 -6338840#2.8 -6338840#2.10 -6338840#2.17 -6338840#2.26 -6338840#2.58 -6338840#2.75 -6338840#2.100 -6338840#2.124 -6338840#1 6404744 6404744.18 6404744.53 6404744.58 6404744.65 6404744.71 6404744.77 6404744.95 6404744.109 6404744.121 195595366#7 195595366#8 195595366#8.11 195595366#8.14 7913792#0 7913792#0.7 7913792#0.28 7913792#0.38 7913792#0.46 7913792#1 7913792#1.7 7913792#2 7913792#2.5 7913792#2.11 24164438 24164438.2 24164438.5 24164438.18 24164438.99 6346104#1 6346104#1.6 -168627943#1 6346111#0 6346111#1 6398141#0 6398141#0.8 6398141#0.98 6398141#0.125 6398141#0.165 6398141#0.167 6333700#1 6333700#1.7 6333700#1.9 -6336003#3 -6336003#3.7 -6336003#2 -6336003#2.56 -6336003#1 -6336003#1.9 -6336003#1.59 -6336003#1.73 -6336003#0 -6336003#0.64 -30832687#0 -30832687#0.21 -422929506 -422929504 -422929504.11 -422929505#1 6339229#1 195433868#2 195433868#2.85 195433868#3 195433868#3.8 195433868#4 195433868#4.108 195433868#5 195433868#5.7 6333700#3 6333700#3.8 6333700#3.10 6333700#3.94 6333700#4 6333700#4.8 6333700#4.94 24314605#1 24314605#2 24314605#3 -24164451#5 -24164451#5.8 -24164451#5.191 -24164451#5.193 -24164451#4 -24164451#4.7 -24164451#4.9 -24164451#4.193 -24164451#4.194 -24164451#3 -24164451#3.6 -24164451#3.8 -24164451#3.104 -24164451#2 -24164451#2.59 -24164451#1 -24164451#1.7 -24164451#1.193 -24164451#0 24164453 24164453.10 24164453.23 32456680 32456680.2 -422947668 -422947668.11 -233686193 -233686193.8 417526430 417526452 417526452.13 417526452.35 415884036 415884036.10 460683946#0 460683946#1 460683945#0 460683945#1 195595360#0 195595360#1 195595360#1.35 195595360#1.62 195595360#1.83 195595360#1.116 195595360#2 195595360#2.6 234074079 234074079.75 234074081 234074080#0 234074080#0.5 234074080#1 234074080#1.6 234074080#2 234074080#2.1 -697544432 -697544432.10 -6408035 -6408035.17 697544433#2 697544433#2.14 6351007#0 6351007#0.29 6351007#0.46 6351007#0.52 6351007#0.56 6351007#0.62 6351007#0.66 6351007#0.72 6351007#0.77 6351007#0.83 6351007#0.89 6351007#0.98 6351007#1 6332167#1 6332167#1.41 6332167#1.56 6332167#1.75 6332167#1.96 6332167#1.109 6332167#1.124 6332167#1.145 6332167#1.164 541338171#0 187827704#2 187827704#2.7 187827704#2.15 187827704#2.33 187827704#2.51 187827704#2.70 187827704#2.88 187827704#2.107 187827704#2.123 187827704#2.139 187827704#2.159 187827704#2.236 187827704#2.255 187827704#2.270 187827704#2.279 6338567#1 6338567#1.107 6338567#2 6338567#3 6338567#3.80 6338567#4 6338567#4.78 6338567#5 6338567#5.8 6338567#6 6338567#7 6338567#7.90 6338567#8 6338567#8.11 6338567#9 6338567#10 -6339085#4 -6339085#4.58 -6339085#4.92 -6339085#4.103 -6339085#3 -6339085#3.11 -6339085#3.19 -6339085#3.40 -6339085#3.47 -6339085#3.56 -6339085#3.68 -6339085#3.81 -6339085#3.95 -6339085#3.107 -6339085#3.120 -6339085#2 -6339085#2.14 -6339085#2.26 -6339085#2.37 -6339085#2.49 -6339085#2.63 -6339085#2.115 -6339085#2.125 -6339085#2.140 -6339085#1 -6339085#0 -6339085#0.12 -6339085#0.27 -6339085#0.45 -6339085#0.77 -6339085#0.87 -6339085#0.98 -6339085#0.119 -6339085#0.129 -190579779#0 -190579779#0.109 -190579779#0.117 6333513#0 6333513#0.10 6333513#0.40 6333513#0.51 6333513#0.62 6333513#0.73 6407689#0 -11043364#4 6344393 6344393.33 6344393.38 6344393.42 6344393.48 -11043364#2 -11043364#1 -11043364#0 -11043364#0.73 -11043364#0.81 -7857575#1 -7857575#1.27 -7857575#1.57 -7857575#1.75 -7857575#1.83 -7857575#1.99 -7857575#1.115 -7857575#1.152 -7857575#1.166 -7857575#1.179 -7857575#1.219 -7857575#1.229 -7857575#1.268 -7857575#1.290 -7857575#1.315 -7857575#1.332 -7857575#1.343 -7857575#1.361 -7857575#1.378 -7857575#1.390 -7857575#1.402 -7857575#1.416 -7857575#1.443 -7857575#1.452 -7857575#1.462"/>
</vehicle>
<vehicle id = "veh13" type= "veh_passenger" depart="21630" >
<route edges =" -316633577#1 -316633577#0 -6340080#2 -6340080#1 -6340080#0 -6340080#0.27 -201989373 -201989373.4 -201989373.9 -201989373.42 678979330 678979330.18 24620199 24620199.9 24620199.11 -6405162#1 -6405162#1.8 -6405162#1.26 -6405162#1.79 -6405162#0 -6405162#0.9 -6405162#0.41 -6405162#0.58 -6405162#0.69 -6405162#0.78 -6405162#0.84 -6405162#0.90 -6356253 -6356253.9 -6356253.18 -6356253.25 -6356253.32 -6356253.183 -6356253.191 -6356253.193 -201989360#2 -201989360#2.6 -201989360#2.14 -201989360#1 -201989360#1.34 -201989360#0 -201989360#0.20 -201989360#0.24 -656030857 -656030854 24620194 24620194.9 24620194.16 24620194.19 -698994088#2 -698994088#1 -698994088#1.18 -698994088#0 -698994088#0.76 -698994089#1 -698994089#1.4 -24620180 -24620180.9 -24620180.11 -24620180.92 -24620180.94 -24620180.96 24620182 24620182.2 24620182.6 24620182.11 24620182.187 24620182.191 24620182.193 -6369662#1 -6369662#1.2 -6369662#1.4 -6369662#1.8 -6382818#1 -6382818#0 -6382818#0.169 43256407#4 43256407#4.88 43256407#4.93 43256407#5 43256407#6 21459815#0 21459815#1 21459815#2 21459815#2.8 475997181#0 475997181#0.7 475997181#1 5149917#0 5149917#0.8 5149917#0.24 5149917#0.37 5149917#0.49 5149917#0.62 5149917#0.74 5149917#1 5149917#1.10 5149917#1.21 5149917#1.37 5149917#1.54 877720646 877720645 435440767#0 435440767#0.20 -311941950#1 -311941950#1.61 -311941950#0 -311941950#0.132 -311941950#0.137 -311941950#0.141 24025453 24025453.6 24025453.30 5149920 5149920.10 5149920.62 659099711 659099711.8 60787285#0 60787285#0.15 60787285#0.27 60787285#0.39 60787285#1 60787285#1.10 60787285#1.24 60787285#1.41 659095426 675763067#0 675763067#1 675763067#1.39 675763067#1.80 675763067#1.103 675763068 675763068.21 675763068.43 675763068.69 675763068.145 675763068.171 7779009 7779009.11 7779009.17 7779009.25 675763066 675763066.9 675763066.19 -6377274#2 -6377274#2.14 -6377274#2.19 -6377274#2.20 -6377274#2.34 -6377274#2.36 -6377274#2.56 -6377274#2.83 -6377274#1 -6377274#1.17 -6377274#1.27 -6377274#0 -6377274#0.5 698805191#0 698805191#0.5 698805191#1 698805191#2 698805190 698805190.31 -517583963#3 -517583963#3.30 -517583963#2 -517583963#2.22 -517583963#1 -517583963#1.13 -517583963#1.28 -517583963#1.48 -517583963#0 -517583963#0.2 -517583963#0.16 -517583963#0.29 24054271 24054271.10 24054271.15 24054271.19 -698994085#1 -7991097#3 -7991097#2 -7991097#2.2 -7991097#2.17 -7991097#1 -7991097#0 -7991097#0.34 -23089172#13 -23089172#13.7 -23089172#12 -23089172#11 -23089172#10 -23089172#10.58 -227756442#0 -227756442#0.6 184891171 184891171.8 184891171.14 -184891177 -184891166 -22273567#2 -22273567#2.26 -6365504#8 -6365504#8.5 -6365504#7 -6365504#6 -6365504#6.53 -6365504#5 -6365504#5.7 -6365504#4 -6365504#4.86 -6365504#4.101 -6365504#4.116 -6365504#4.130 -6365504#4.154 -6365504#3 -6339579#6 -6339579#5 -6339579#5.3 -6339579#4 -6339579#3 -6339579#3.31 -6339579#2 -6339579#2.9 -6339579#1 -6339579#1.60 -6339579#1.62 6341088#1 6341088#1.6 6341088#1.171 -6400775#24 -6400775#24.7 -6400775#24.73 -6400775#23 -6400775#22 -6400775#21 -6400775#21.9 -6400775#21.26 -6400775#21.31 -6400775#21.41 -6400775#20 -6400775#20.16 -6400775#19 -6400775#19.6 -6400775#19.18 -6400775#19.19 -6400775#19.28 -6400775#19.34 -6400775#19.49 -6400775#19.58 -6400775#18 -6400775#18.1 -6400775#18.54 -6400775#17 -6400775#16 -6400775#15 -6400775#15.27 -6400775#15.60 -6400775#15.68 -6400775#15.72 -6400775#15.75 -6400775#14 -6400775#13 -6400775#13.4 -6400775#12 -6400775#11 -6400775#10 -6400775#10.91 -6400775#10.107 430285891 6398981 6398981.7 6398981.30 6398981.36 6398981.42 6398981.50 6398981.79 -6347531 -6347531.58 -6347531.76 -6347531.94 -6400722#0 -190380685#1 -190380685#1.9 -190380685#1.20 -190380685#1.38 -190380685#1.61 -190380685#1.77 -190380685#1.84 -190380685#0 -190380685#0.11 -190380685#0.22 -190380685#0.34 -190380685#0.60 -190380689#3 -190380689#2 -22277719#3 -22277719#2 -22277719#1 -22277719#1.48 -22277719#1.63 -22277719#0 -6400775#3 -6400775#3.15 -6400775#3.35 -6400775#3.44 -6400775#3.53 -6400775#3.63 -6400775#3.76 -6400775#3.90 -6400775#3.101 -6400775#3.112 -6400775#3.121 -6400775#2 -6400775#2.9 -6400775#2.16 -6400775#2.23 -6400775#2.29 -6400775#1 -6400775#1.10 -6400775#1.28 -6400775#1.38 -6400775#1.49 -6400775#1.59 -6400775#0 -6400775#0.3 -6400775#0.8 24221419#0 24221419#0.12 24221419#0.22 24221419#0.35 24221419#0.47 24221419#1 24221419#1.10 24221419#2 24221419#2.4 24221419#2.15 24221419#2.26 24221419#2.38 24221419#2.49 24221419#3 24221419#4 24221419#4.8 24221419#4.15 24221419#4.24 24221419#4.32 24221419#4.41 24221419#4.49 24221419#4.57 24221419#4.69 24221419#4.82 24221419#4.94 24221419#4.100 24221419#4.109 24221419#4.119 24221419#4.127 24221419#5 24221419#5.9 24221419#5.16 24221419#5.22 24221419#5.29 -190579762#18 -190579762#18.4 -190579762#18.5 -190579762#18.14 -190579762#18.28 -190579762#18.50 -190579762#18.74 -190579762#17 -190579762#17.47 -190579762#16 -190579762#16.8 -190579762#16.11 -190579762#16.26 -190579762#16.39 -190579762#16.53 -190579762#16.67 -190579762#16.88 -190579762#16.106 -190579762#16.127 -190579762#15 -190579762#14 -190579762#13 -190579762#13.2 -190579762#13.22 -190579762#12 -190579762#12.22 -190579762#11 -190579762#11.4 -190579762#11.17 -190579762#11.28 -190579762#11.40 -190579762#11.52 -190579762#11.98 -190579762#11.111 -190579762#11.126 -190579762#11.141 -190579762#11.146 -190579762#11.153 -190579762#11.157 6336093#0 6336093#0.13 6336093#0.28 6336093#0.38 6336093#0.123 -6339085#8 -6339085#8.12 -6339085#8.19 -6339085#8.28 -6339085#8.38 -6339085#8.98 -6339085#8.116 -6339085#7 -6339085#7.29 -6339085#7.47 -6339085#7.68 -6339085#7.87 -6339085#7.110 -6339085#6 -6339085#5 -6339085#5.13 -6339085#5.24 -6339085#5.39 6338567#11 -6331171#0 -6331171#0.25 -6331171#0.43 -6331171#0.60 -6331171#0.76 -6331171#0.88 -6331171#0.103 -6331171#0.128 -6331171#0.142 -6331171#0.152 -6331171#0.164 -6331171#0.175 -6331171#0.204 -6331171#0.224 -6331171#0.241 -6331171#0.267 -6331171#0.278 -6331171#0.300 -6331171#0.317 -6331171#0.335 -6331171#0.377 -6331171#0.390 -6331171#0.400 190579779#3 190579779#3.8 190579779#3.15 190579779#3.31 190579811#0 190579811#0.14 190579811#0.31 190579811#0.46 190579811#0.61 190579811#0.77 190579811#0.101 190579811#0.116 190579811#0.136 190579811#0.154 190579811#0.171 190579811#0.189 190579811#0.205 190579811#0.225 190579811#0.230 -11043363#4 -11043363#4.9 -11043363#4.16 -11043363#4.34 -11043363#4.41 -11043363#3 -11043363#3.7 -11043363#2 -11043363#1 -11043363#0 7857575#0 7857575#0.10 7857575#0.24 7857575#0.39 7857575#0.57 7857575#0.75 7857575#0.88 7857575#0.126 7857575#0.144 7857575#0.146 7857575#0.162 7857575#0.184 7857575#0.212 7857575#0.218 7857575#0.224 7857575#0.229 7857575#0.241 7857575#0.275 7857575#0.303 7857575#0.315 7857575#0.324 7857575#0.326 7857575#0.339 7857575#0.350 7857575#0.357 7857575#0.360 7857575#0.410 7857575#1 7857575#1.42 7857575#1.66 7857575#1.85"/>
</vehicle>
</routes>
