<?xml version="1.0" encoding="UTF-8"?>
<routes xmlns:xsi="http: // www.w3.org/2001/XMLSchema-instance" xsi:noNamespaceSchemaLocation="http: // sumo.dlr.de/xsd/routes_file.xsd">
<vType id="veh_passenger" vClass="passenger"/>

<vehicle id = "veh0" type= "veh_passenger" depart="0" >
<route edges =" -8385193#1 -7742910#2 4798899#0 4798899#1 236957433#5 -8385204#8 -8385204#4 -8385204#3 -73332781 480759757#3 -224181625#1 -224180985 8385224#0 8385224#2 -236959505#4 -236959505#1 929968165#0 929968163 224180697#0 929968157 47048379 -8179134#7 -8179134#0 76590370#0 76590370#1 76590370#2 238913756#1 -25359279 835476530#4 30199824#2 30199824#5"/>
</vehicle>
<vehicle id = "veh1" type= "veh_passenger" depart="0" >
<route edges =" -403510503 204348401 -236841161#2 -30731850#1 7742064#0 54244431#0 30691382#0 43585221#0 -401508454#1 -233333808#3 -605424626 969804220 18017473 8258986 257005240#0 -181799764#3 -181799764#2 -598147041#4 313842644 -2418032#3 -2513470#5 27929741#0 -32636450#1 -27928471 -2430956#0 99961287#2 99961287#3 -4884668#0 797329175 386356201 -238913756#8 8386786#0 8386786#1 238913649#0"/>
</vehicle>
<vehicle id = "veh2" type= "veh_passenger" depart="0" >
<route edges =" 7742905 34022688#1 34022688#2 34022688#3 34022688#4 753622268#0 753622268#3 246017140 753622270#0 199773280 246017138#0 38809715#0 130886148#0 39188797#0 25360211 23179769#0 -173198873#0 23179775#4 23179775#8 636624667#6 363821070#0 363821070#1 39188796#0 -25360212 -47048378#2 6578289#0 6578289#3 25359285#0 25359285#7 25359285#9 25359285#10 99961324#0 99961324#1 2450764 -290053779#1 27929812#1 -6578226#0 -30199425#1 -6578219#6 -6578219#4 -6578219#1 -47048136#3 -2466941#14 -8386793#7 34293998 8386795#1 8386795#3 -238913649#2"/>
</vehicle>
<vehicle id = "veh3" type= "veh_passenger" depart="0" >
<route edges =" 23180952 194508904#1 23180951#1 -23180965#2 -23180965#1 23180978 243464995#0 -201487428#2 -199771389#0 23188756#0 -199514520#0 -199771388#3 -199771388#1 -202052944#8 -202052944#7 -202052944#6 -202052944#2 7742058#0 23197109#0 -4536592#0 4536593#0 4536595#0 4536595#1 163718531 179642842 30727694#0 -196819984 -30726570 -27289094#4 -27292880#2 16297002#7 -2418095#6 -2418095#2 -2418095#0 -534087835#10 -197881958 -31324122#5 2415103#0 38907609#0 813749605 210335525#0 203982569#0 197477212 203981674 2467171 690824735#0 330437#0 228015712#0 29046088 29046089#0 38752553#1 38752553#4 38752553#7 38752553#10 38752553#13 38752553#17 4340904#0 39941506 643233291#0 643233290#0 534031400#0 4254687#0 -4248704#8 -4248704#5 -4248704#4 4253449#0 4253449#4 637031477#0 637031477#1 4250582#0 4253394#0 -28400717#2 4253385 809008496"/>
</vehicle>
<vehicle id = "veh4" type= "veh_passenger" depart="0" >
<route edges =" -329553#2 -20638866 120755374#15 -20201506#1 586978024#0 230547772 230547774#1 230547774#4 586978715#0 586978715#1 586978715#2 20199976#0 20199976#4 20199976#7 20197794 -197195590#0 -207977706#2 -207977706#1 -8179323#10 -8117333#5 991376781 -8139716#1 253285243#1 4307713 -667932992#2 2624008#3 210321007#0 210322343 239268119#0 239268119#1 239268116 239268118#2 239268118#4 259918585#1 2624007#0 239268117#0 61904430#0 61904430#4 164587415#0 -227931029 25654305#0 723903169#0 723903169#1 164441840#0 130886156#0 201783838#0 2818478 753618490 198882222#0 198882222#3 157573005#1 250754902#0 47009456#0 842034460#0 851321120 851321117#1 851330426#1 851330426#3 851330435#1 851330425 851330436#1 901462423#1 901462428 250754905#2 250754903 851330434#1 901462443#1 245290331 901462469#1 901462476 901462479#1 901462485#1 901462488#1 901462498#1 901462501#1 47009633#0 48379497#0 2467171 690824735#0 47047809#0 609061152#0 670636345 609061150 201759853#2 496742426 496742428#0 496742427 201760880#0 201760880#1 10879272 201756812#0 201756812#2 201756812#3 4254662#0 4254662#6 4254627#0 4254627#2 4254638#2 4254638#3 4255941 472247059#0 472247059#1 4255930#0 4255929#0 4255940#0 -596680098#8 -596680098#3 -657134509#1 -693294644#1 -780411383 886590029 886590033 888020107#0 -888020115#1 -4253691#5 -4253691#1 -578174541 -578170386 -978195958 -978195961#0 4253982"/>
</vehicle>
<vehicle id = "veh5" type= "veh_passenger" depart="3605" >
<route edges =" -8385193#1 -7742910#2 4798899#0 4798899#1 236957433#5 -8385204#8 -8385204#4 -8385204#3 -73332781 480759757#3 -224181625#1 -224180985 8385224#0 8385224#2 -236959505#4 -236959505#1 929968165#0 929968163 224180697#0 929968157 47048379 -8179134#7 -8179134#0 76590370#0 76590370#1 76590370#2 238913756#1 -25359279 835476530#4 30199824#2 30199824#5"/>
</vehicle>
<vehicle id = "veh6" type= "veh_passenger" depart="3605" >
<route edges =" -403510503 204348401 -236841161#2 -30731850#1 7742064#0 54244431#0 30691382#0 43585221#0 -401508454#1 -233333808#3 -605424626 969804220 18017473 228479564#1 686204226 237559987 686204498#0 686204498#2 -30691664#3 -181799764#5 -181799764#3 -181799764#2 -598147041#4 313842644 -2418032#3 -2513470#5 27929741#0 -32636450#1 -27928471 -2430956#0 99961287#2 99961287#3 -4884668#0 797329175 386356201 238913756#9 -8386794#6 -8386793#3 238913649#0"/>
</vehicle>
<vehicle id = "veh7" type= "veh_passenger" depart="3605" >
<route edges =" 17943462#0 8385203 34022688#1 34022688#2 -8385199#2 -8385196#2 -8385196#1 199773279#3 753622268#0 753622268#3 246017140 753622270#0 199773280 246017138#0 38809716 210324553#4 4471812#0 4471812#3 4471812#5 4471812#8 246017141#3 39188797#0 25360211 259296871#1 259296871#5 636624667#0 636624667#1 636624667#3 636624667#5 636624667#6 363821070#0 363821070#1 25360213#0 -245598547 -25360212 -47048378#2 6578289#0 6578289#3 25359285#0 25359285#7 25359285#9 25359285#10 99961324#0 99961324#1 2450764 -290053779#1 27929812#1 6578226#1 30199424#0 -6578219#6 4884668#0 99961287#4 99961287#6 -47048136#6 -47048136#5 -47048136#3 -2466941#14 -2466941#7 -2466941#6 8386795#0 8386795#1 8386795#3 -238913649#2"/>
</vehicle>
<vehicle id = "veh8" type= "veh_passenger" depart="3605" >
<route edges =" 23180952 194508904#1 23180951#1 -23180965#2 -23180965#1 -23180965#0 30733077#5 233066324 -201487427#2 -201487428#2 -199771389#0 23188756#0 -199514520#0 -199771388#3 -199771388#1 -202052944#8 -202052944#7 -202052944#6 -202052944#2 7742058#0 7742058#4 591934082#0 591934082#1 4536593#0 4536595#0 4536595#1 163718531 179642842 30727694#0 -196819984 -30726570 -27289094#4 -27292880#2 16297002#7 2418095#7 -199518163#3 -534024689#3 27267644#0 -2418095#2 -2418095#0 -534087835#10 -197881958 -31324122#5 2415103#0 38907609#0 813749605 210335525#0 203982569#0 197477212 203981674 2467171 690824735#0 330437#0 228015712#0 29046088 29046089#0 38752553#1 38752553#4 38752553#7 38752553#10 38752553#13 38752553#17 18942156#0 18942156#3 4340872 643233291#0 643233290#0 534031400#0 4254687#0 -4248704#8 -4248704#5 4252579#0 4252579#2 534031400#5 534031400#6 -257776872#2 -694839518#2 4250577#0 4250577#1 4252521#0 4252521#1 -166594099#1 4253419#0 4253419#2 4253416#1 4253416#2 4253424 -596678291 4253449#0 4253449#4 637031477#0 637031477#1 4250582#0 4253394#0 -28400717#2 4253385 809008496"/>
</vehicle>
<vehicle id = "veh9" type= "veh_passenger" depart="3605" >
<route edges =" -329553#2 -20638866 120755374#15 -20201506#1 586978024#0 230547772 230547774#1 230547774#4 586978715#0 586978715#1 586978715#2 586978715#3 -110459076 -623643717 623643712 -197195591 -197195590#4 -197195590#2 -197195590#1 -197195590#0 -207977706#2 -207977706#1 -8179323#10 -8179323#3 -8179323#0 4049119#0 253285243#0 253285243#1 4307713 -667932992#2 2624008#3 210321007#0 210322343 239268119#0 239268119#1 239268116 239268118#2 239268118#4 259918585#1 2624007#0 239268117#0 61904430#0 61904430#4 164587415#0 -227931029 25654305#0 723903169#0 723903169#1 164441840#0 130886156#0 119914183#0 -8117353#2 2818478 753618490 198882222#0 198882222#3 157573005#1 250754902#0 47009456#0 842034460#0 851321120 851321117#1 851330426#1 851330426#3 851330435#1 851330425 851330436#1 901462423#1 901462428 250754905#2 250754903 851330434#1 901462443#1 245290331 901462469#1 901462476 901462479#1 901462485#1 901462488#1 901462498#1 901462501#1 47009633#0 48379497#0 2467171 690824735#0 47047809#0 609061152#0 670636345 609061150 201759853#2 496742426 496742428#0 496742427 201760880#0 201760880#1 10879272 201756812#0 201756812#2 201756812#3 4254662#0 4254662#6 166585298#11 493711859#3 250325162 236678750#0 250328430#0 -4254638#7 -4254638#5 4255941 472247059#0 472247059#1 4255930#0 4255929#0 4255940#0 -596680098#8 -596680098#3 -657134509#1 -693294644#1 -780411383 886590029 886590033 888020107#0 -888020115#1 -4253691#5 -4253691#1 -578174541 6273410#0 6273410#2 37854353 -978195958 -978195961#0 4253982"/>
</vehicle>
<vehicle id = "veh10" type= "veh_passenger" depart="7210" >
<route edges =" -8385193#1 -7742910#2 4798899#0 4798899#1 236957433#5 -8385204#8 -8385204#4 -17940473 -7742906 17940471#0 236957313 480759757#0 8385204#0 -73332781 480759757#3 -224181625#1 -224180985 8385224#0 8385224#2 -236959505#4 -236959505#1 929968165#0 929968163 224180697#0 929968157 47048379 47048375 16646846 365198126#1 99961323#0 76590370#1 76590370#2 238913756#1 -25359279 835476530#4 30199824#2 30199824#5"/>
</vehicle>
<vehicle id = "veh11" type= "veh_passenger" depart="7210" >
<route edges =" -403510503 204348401 -236841161#2 -30731850#1 7742064#0 54244431#0 30691382#0 43585221#0 -401508454#1 -233333808#3 -605424626 969804220 18017473 8258986 257005240#0 -181799764#3 -181799764#2 -598147041#4 313842644 -2418032#3 -2513470#5 202053028#2 -27929741#8 -32636450#1 -27928471 -2430956#0 99961287#2 99961287#3 -4884668#0 797329175 386356201 -238913756#8 8386786#0 8386786#1 238913649#0"/>
</vehicle>
<vehicle id = "veh12" type= "veh_passenger" depart="7210" >
<route edges =" 17943462#0 17943462#1 8385202#1 34022688#2 -8385199#2 -8385196#2 73847585 34022688#4 753622268#0 753622268#3 246017140 753622270#0 199773280 246017138#0 38809715#0 130886148#0 39188797#0 25360211 259296871#1 259296871#5 636624667#0 636624667#1 636624667#3 636624667#5 636624667#6 363821070#0 363821070#1 39188796#0 -25360212 -47048378#2 6578289#0 6578289#3 25359285#0 25359285#7 25359285#9 25359285#10 99961324#0 99961324#1 2450764 -290053779#1 27929812#1 6578226#1 30199424#0 -6578219#6 -6578219#4 -6578219#1 -47048136#3 -2466941#14 -8386793#7 34293998 8386795#1 8386795#3 -238913649#2"/>
</vehicle>
<vehicle id = "veh13" type= "veh_passenger" depart="7210" >
<route edges =" 23180952 194508904#1 23180951#1 -23180965#2 -23180965#1 23180978 243464995#0 -201487428#2 -199771389#0 23188756#0 -199514520#0 -199771388#3 -199771388#1 -202052944#8 -202052944#7 -202052944#6 -202052944#2 -202052944#1 -202052944#0 -4536592#4 -4536592#0 4536593#0 4536595#0 4536595#1 163718531 179642842 30727694#0 -196819984 -686204498#14 16297002#0 16297002#1 18017184#0 -27292880#2 16297002#7 -2418095#6 -2418095#2 -2418095#0 -534087835#10 2481098#0 2481098#1 -372683468#4 2430840#0 499557812#0 -813749604#6 -31324113#3 38907609#0 813749605 210335525#0 203982569#0 197477212 203981674 2467171 690824735#0 330437#0 228015712#0 29046088 29057437 444894366 230498742 -2831540#3 38752553#1 38752553#4 38752553#7 38752553#10 38752553#13 38752553#17 4340904#0 39941506 643233291#0 643233290#0 534031400#0 534031400#1 534031400#2 4255856#0 4255856#1 4255932#0 4255938#0 100514387#5 166594102#0 166594100 -4253423 4253416#2 4253416#3 4253449#4 637031477#0 637031477#1 4250582#0 4253394#0 -28400717#2 4253385 809008496"/>
</vehicle>
<vehicle id = "veh14" type= "veh_passenger" depart="7210" >
<route edges =" -329553#2 -20638866 120755374#15 -20201506#1 586978024#0 -230547768 8402463#0 8402486 230547774#1 230547774#4 586978715#0 586978715#1 586978715#2 20199976#0 20199976#4 20199976#7 7466481#2 7466481#3 -51175603 -197195590#2 -197195590#1 -197195590#0 -207977706#2 -207977706#1 -8179323#10 -8179323#3 -8179323#0 4049119#0 253285243#0 253285243#1 4307713 -667932992#2 2624008#3 210321007#0 210322343 239268119#0 239268119#1 239268116 239268118#2 239268118#4 259918585#1 2624007#0 239268117#0 61904430#0 61904430#4 164587415#0 -227931029 25654305#0 723903169#0 723903169#1 164441840#0 130886156#0 201783838#0 2818478 753618490 198882222#0 198882222#3 157573005#1 250754902#0 47009456#0 842034460#0 851321120 851321117#1 851330426#1 851330426#3 851330435#1 851330425 851330436#1 901462423#1 901462428 250754905#2 250754903 851330434#1 901462443#1 245290331 901462469#1 901462476 901462479#1 901462485#1 901462488#1 901462498#1 901462501#1 47009633#0 48379497#0 2467171 690824735#0 47047809#0 609061152#0 670636345 609061150 201759853#2 496742426 496742428#0 496742427 201760880#0 201760880#1 10879272 201756812#0 201756812#2 201756812#3 4254662#0 4254662#6 4254627#0 4254627#2 4254638#2 4254643 166585297#1 472247059#0 472247059#1 4255930#0 4255929#0 4255940#0 -596680098#8 -596680098#3 -657134509#1 -693294644#1 -780411383 886590029 886590033 888020107#0 -888020115#1 -4253691#5 -4253691#1 -578174541 -578170386 -978195958 -978195961#0 4253982"/>
</vehicle>
<vehicle id = "veh15" type= "veh_passenger" depart="10815" >
<route edges =" -8385193#1 -7742910#2 -7742910#1 236957433#4 236957433#5 236957433#7 236957433#17 199773280 246017138#0 38809715#0 130886148#0 39188797#0 25360211 259296871#1 259296871#5 636624667#0 23179775#0 23179775#4 23179775#8 636624667#6 363821070#0 363821070#1 25360213#0 -245598547 -25360212 -47048378#2 6578289#0 6578289#3 25359285#0 25359285#7 25359285#9 25359285#10 99961324#0 99961324#1 -557694267#1 -557694267#0 -30243098#0 30243097#0 238913756#1 -25359279 835476530#4 30199824#2 30199824#5"/>
</vehicle>
<vehicle id = "veh16" type= "veh_passenger" depart="10815" >
<route edges =" -403510503 204348401 -23180924 -227833720#0 -43585222#7 -43585222#5 -43585222#4 -43585222#2 43585221#0 -401508454#1 -233333808#3 -605424626 969804220 43585219#0 -688133748#1 -401508456 -197881706 -231813686#2 -598147041#4 313842644 -2418032#3 250754905#2 250754903 851330434#1 -2430956#13 -2430956#12 -2430956#6 202053028#6 99961288#0 99961288#3 99961288#5 311561502 18942158#0 -4884668#7 -4884668#4 -4884668#3 -4884668#1 -4884668#0 797329175 386356201 -238913756#8 -238913756#7 -25359278 -16295338#2 8386786#1 238913649#0"/>
</vehicle>
<vehicle id = "veh17" type= "veh_passenger" depart="10815" >
<route edges =" 7742905 34022688#1 34022688#2 -8385199#2 -8385196#2 -8385196#1 199773279#3 753622268#0 753622268#3 246017140 753622270#0 199773280 246017138#0 38809716 210324553#4 4471812#0 4471812#3 4471812#5 4471812#8 246017141#3 47009458#0 210336040#0 130886143 164441840#0 130886156#0 201783838#0 2818478 753618490 198882222#0 198882222#3 47009454 198882212#0 753621324#0 753621321#0 198882134#0 198882134#1 246019110#0 -2660144#2 -8259861#2 -8259861#0 -175994562#1 -175994562#0 -23180842#2 -23180842#0 -18942160 -30286837#1 -30286837#0 2450764 99961287#1 99961287#2 99961287#3 99961287#4 99961287#6 -47048136#6 -47048136#5 -47048136#3 -238913756#12 -8386794#6 8386793#4 34293998 8386795#1 8386795#3 -238913649#2"/>
</vehicle>
<vehicle id = "veh18" type= "veh_passenger" depart="10815" >
<route edges =" 23180952 194508904#1 23180951#1 -23180965#2 -23180965#1 23180978 243464995#0 -201487428#2 -199771389#0 23188756#0 -199514520#0 -199771388#3 -199771388#1 -202052944#8 -202052944#7 -202052944#6 -202052944#2 7742058#0 23197109#0 4536592#2 -230843110#7 -230843110#3 -538314349#2 -686217352 -163721162#0 4536595#0 4536595#1 163718531 179642842 30727694#0 -196819984 -30726570 27292988#0 16297002#1 16297002#5 16297002#7 -2418095#6 -400898250 -534024689#2 -534087836#2 -372683468#4 2430840#0 499557812#0 -813749604#6 -31324113#3 38907609#0 813749605 210335525#0 203982569#0 197477212 203981674 2467171 690824735#0 47047809#0 609061152#0 670636345 609061150 201759853#2 496742426 496742428#0 496742427 77105053#0 859453205#0 250325170#2 493711858#0 493711858#1 250325173 493711859#0 493711859#3 250325162 236678750#0 250328430#0 -4254638#7 -4254638#5 4255941 -166585297#1 -6266181#3 -4248704#15 -4248704#11 -4248704#8 4255932#0 4255938#0 100514387#5 166594102#0 -4253424 4253416#3 4253449#4 637031477#0 637031477#1 4250582#0 4253394#0 4253394#1 732152397 732154817#0 732154817#1 4253390#0 809008496"/>
</vehicle>
<vehicle id = "veh19" type= "veh_passenger" depart="10815" >
<route edges =" -329553#2 -20638866 120755374#15 -20201506#1 586978024#0 230547772 -8402486 8402463#1 8199521#0 242047471#1 9027684 -8402465#1 -8402465#0 -36719933#1 -36719933#0 -207977706#6 -207977706#5 -207977706#4 -207977706#2 -207977706#1 -8179323#10 -8117333#5 991376781 -8139716#1 253285243#1 4307713 -667932992#2 2624008#3 210321007#0 210322343 239268119#0 239268119#1 239268116 25654593#0 25654593#1 -56131941 56131940#0 17998945 259918585#1 2624007#0 239268117#0 61904424#0 828620488#0 -30477242 -723903171#0 -30477245 164587415#0 164587415#4 30745907 25651230#0 25651208 245284840 -237323557#1 -201783839#1 -8117353#2 2818478 753618490 198882222#0 198882222#3 47009454 198882212#0 -7742369#6 -27813827#1 -19209657#2 -19209657#1 842034460#0 851321120 851321117#1 2660144#0 8390305#0 -27474094#1 198358155#0 325227908#0 685334339#0 969804220 18017473 228479564#1 686204226 237559987 686204498#0 -30691386 257005240#0 -181799764#3 -181799764#2 -202053019#8 -202053019#4 -534024688#5 -534024688#4 -534024688#2 -534087835#10 -197881958 -31324122#5 2415103#0 38907609#0 813749605 210335525#0 203982569#0 197477212 203981674 2467171 690824735#0 47047809#0 609061152#0 670636345 609061150 201759853#2 496742426 496742428#0 496742427 201760880#0 201760880#1 10879272 201756812#0 201756812#2 201756812#3 201756812#6 -4340908#1 726583329#1 4340909#1 201756812#14 201756812#17 201756812#20 534031400#0 534031400#1 534031400#2 534031400#5 534031400#6 -257776872#2 -694839518#2 4250577#0 4250577#1 4252521#0 4253225#1 560891304 4253419#2 4253416#1 4253416#2 4253424 -596678291 -596678299#2 -100514387#3 -596680098#8 -596680098#3 -657134509#1 -693294644#1 -780411383 886590029 886590033 888020107#0 -888020115#1 -4253691#5 -4253691#1 -578174541 6273410#0 6273410#2 37854353 -978195958 -978195961#0 4253982"/>
</vehicle>
<vehicle id = "veh20" type= "veh_passenger" depart="14420" >
<route edges =" -8385193#1 -7742910#2 -7742910#1 236957433#4 236957433#5 236957433#7 236957433#17 199773280 246017138#0 38809715#0 130886148#0 39188797#0 25360211 23179769#0 -173198873#0 23179775#4 23179775#8 636624667#6 363821070#0 363821070#1 39188796#0 -25360212 -47048378#2 6578289#0 6578289#3 25359285#0 25359285#7 25359285#9 25359285#10 -8179132#6 25859274#0 -8179132#1 76590370#2 238913756#1 -25359279 835476530#4 30199824#2 30199824#5"/>
</vehicle>
<vehicle id = "veh21" type= "veh_passenger" depart="14420" >
<route edges =" -403510503 204348401 -23180924 -227833720#0 -230242293 -30728820#0 192380841 -209694797#2 24328182#0 24328182#2 2428027#3 30692658 -233333808#3 -605424626 969804220 43585219#0 -688133748#1 -401508456 -197881706 -231813686#2 -598147041#4 313842644 -2418032#3 250754905#2 250754903 851330434#1 -2430956#13 30193003#0 30193003#2 -2430956#6 202053028#6 99961288#0 99961288#3 99961288#5 311561502 -47009631#4 -166482670#3 -47009514#1 -99961287#7 32139530 6578219#3 797329175 386356201 -238913756#8 -238913756#7 -25359278 -16295338#2 8386786#1 238913649#0"/>
</vehicle>
<vehicle id = "veh22" type= "veh_passenger" depart="14420" >
<route edges =" 17943462#0 17943462#1 8385202#1 34022688#2 34022688#3 34022688#4 753622268#0 753622268#3 246017140 753622270#0 199773280 246017138#0 38809715#0 130886148#0 47009458#0 210336040#0 130886143 164441840#0 130886156#0 201783838#0 2818478 753618490 198882222#0 198882222#3 157573005#1 250754902#0 7742369#0 -27813827#1 -19209657#2 -19209657#1 842034460#0 851321120 851321117#1 851330426#1 -175994562#1 14351728 673429315#0 -18942163#2 -18942160 -30286837#1 -30286837#0 2450764 99961287#1 99961287#2 99961287#3 -4884668#0 -6578219#4 -6578219#1 -47048136#3 -238913756#12 -8386794#6 8386793#4 34293998 8386795#1 8386795#3 -238913649#2"/>
</vehicle>
<vehicle id = "veh23" type= "veh_passenger" depart="14420" >
<route edges =" 23180952 194508904#1 23180951#1 -23180965#2 -23180965#1 23180978 243464995#0 -201487428#2 -199771389#0 23188756#0 -199514520#0 -199771388#3 -199771388#1 -202052944#8 -202052944#7 -202052944#6 -202052944#2 -202052944#1 -202052944#0 -230843110#7 -230843110#3 -538314349#2 -538314349#1 16297152#0 4536595#1 163718531 179642842 30727694#0 -196819984 -30726570 27292988#0 30686960#0 -27292982#4 16296979#3 16297002#5 16297002#7 -2418095#6 -400898250 -534024689#2 -534087836#2 -372683468#4 2430840#0 499557812#0 -813749604#6 -31324113#3 38907609#0 813749605 210335525#0 203982569#0 197477212 203981674 2467171 690824735#0 47047809#0 609061152#0 670636345 609061150 201759853#2 496742426 496742428#0 496742427 77105053#0 859453205#0 250325170#2 -34083185#1 2514020#0 2514020#1 2514020#4 2483868#4 -166585298#13 -166585298#10 -166585298#6 -166585298#4 -4248704#15 -4248704#11 -4248704#8 -4248704#5 -4248704#4 4253449#0 4253449#4 637031477#0 637031477#1 4250582#0 4253394#0 -28400717#2 4253385 809008496"/>
</vehicle>
<vehicle id = "veh24" type= "veh_passenger" depart="14420" >
<route edges =" -329553#2 -20638866 120755374#15 -20201506#1 586978024#0 230547772 -8402486 8402463#1 8199521#0 242047471#1 -51175591#2 -38732022 -8402490#0 -36719933#3 -36719933#1 -36719933#0 -207977706#6 -8402493#3 -878794032#2 -878794032#1 8376176#0 8376176#1 -207977706#1 -8179323#10 -8117333#5 991376781 -8139716#1 253285243#1 4307713 -667932992#2 2624008#3 210321007#0 210322343 239268119#0 239268119#1 239268116 25654593#0 -898443087#1 -17998948 17998945 259918585#1 2624007#0 239268117#0 61904430#0 -25654306#1 -723903171#0 -30477245 164587415#0 164587415#4 30745907 25651230#0 25651208 245284840 -237323557#1 -201783839#1 -8117353#2 2818478 753618490 198882222#0 198882222#3 47009454 198882212#0 753621324#0 753621321#0 198882134#0 198882134#1 246019110#0 -2660144#2 8390305#0 -27474094#1 198358155#0 325227908#0 685334339#0 969804220 18017473 8258986 257005240#0 -181799764#3 -181799764#2 -202053019#8 -202053019#4 30198461#0 -246803971#1 14351492#0 -27547873 311561500#0 2415176#2 901612639 901612637#0 901612637#1 332579426#0 -31324122#5 2415103#0 38907609#0 813749605 210335525#0 203982569#0 197477212 203981674 2467171 690824735#0 47047809#0 609061152#0 670636345 609061150 201759853#2 496742426 496742428#0 496742427 201760880#0 201760880#1 10879272 201756812#0 201756812#2 201756812#3 201756812#6 201756812#10 201756812#14 201756812#17 201756812#20 534031400#0 534031400#1 534031400#2 534031400#5 534031400#6 -257776872#2 -694839518#2 4250577#0 4253225#0 -4252521#0 4250577#2 4253229 560891304 4253419#2 4253416#1 4253416#2 4253424 -596678291 -596678299#2 -100514387#3 -596680098#8 -596680098#3 -657134509#1 -693294644#1 -780411383 886590029 886590033 888020107#0 -888020115#1 -4253691#5 -4253691#1 -578174541 -578170386 -978195958 -978195961#0 4253982"/>
</vehicle>
<vehicle id = "veh25" type= "veh_passenger" depart="18025" >
<route edges =" -8385193#1 -7742910#2 -7742910#1 236957433#4 236957433#5 236957433#7 236957433#17 199773280 246017138#0 38809715#0 130886148#0 39188797#0 25360211 23179769#0 -173198873#0 -23179775#3 636624667#1 636624667#3 636624667#5 636624667#6 363821070#0 363821070#1 39188796#0 -25360212 -47048378#2 6578289#0 6578289#3 25359285#0 25359285#7 25359285#9 25359285#10 -8179132#6 25859274#0 -8179132#1 76590370#2 238913756#1 -25359279 835476530#4 30199824#2 30199824#5"/>
</vehicle>
<vehicle id = "veh26" type= "veh_passenger" depart="18025" >
<route edges =" -403510503 204348401 -23180924 -227833720#0 -43585222#7 -43585222#5 -43585222#4 -43585222#2 43585221#0 -401508454#1 -233333808#3 -605424626 969804220 43585219#0 -688133748#1 -401508456 -197881706 -231813686#2 -598147041#4 313842644 -2418032#3 -2513470#5 202053028#2 202053028#4 202053028#6 99961288#0 99961288#3 99961288#5 311561502 18942158#0 -4884668#7 -6578208 -4884668#1 -4884668#0 797329175 386356201 -238913756#8 -238913756#7 -25359278 -16295338#2 8386786#1 238913649#0"/>
</vehicle>
<vehicle id = "veh27" type= "veh_passenger" depart="18025" >
<route edges =" 7742905 34022688#1 34022688#2 34022688#3 34022688#4 753622268#0 753622268#3 246017140 753622270#0 199773280 246017138#0 38809715#0 130886148#0 47009458#0 210336040#0 130886143 164441840#0 130886156#0 201783838#0 2818478 753618490 198882222#0 198882222#3 47009454 198882212#0 -7742369#6 -27813827#1 -19209657#2 -19209657#1 842034460#0 851321120 469764189#0 8173089#1 -31731184#1 -23180842#2 19209655#0 673429315#0 -18942163#2 -18942160 -30286837#1 -30286837#0 2450764 99961287#1 99961287#2 99961287#3 99961287#4 99961287#6 -47048136#6 -47048136#5 -47048136#3 -238913756#12 -8386794#6 8386793#4 34293998 8386795#1 34293999 119579783#0 34294002"/>
</vehicle>
<vehicle id = "veh28" type= "veh_passenger" depart="18025" >
<route edges =" 23180952 194508904#1 23180951#1 -23180965#2 -23180965#1 -23180965#0 30733077#5 233066324 -201487427#2 -201487428#2 -831378083#3 -831378086 23171828#0 -199514520#2 -199514520#0 -199771388#3 -199771388#1 -202052944#8 -202052944#7 -202052944#6 -202052944#2 7742058#0 23197109#0 4536592#2 -230843110#7 -230843110#3 -538314349#2 -538314349#1 -199514512#0 -201487146#2 -237559984#3 -30727695#1 30727694#0 -196819984 -686204498#14 16297002#0 30686960#0 -27292982#4 16296979#3 18017184#0 -27292880#2 16297002#7 2418095#7 -199518163#3 -534024689#3 -534024689#2 -534087836#2 -372683468#4 2430840#0 499557812#0 -813749604#6 -31324113#3 38907609#0 813749605 210335525#0 203982569#0 197477212 203981674 2467171 690824735#0 47047809#0 609061152#0 670636345 609061150 201759853#2 496742426 496742428#0 496742427 77105053#0 859453205#0 250325170#2 493711858#0 493711858#1 250325173 493711859#0 -166585298#13 -166585298#10 -166585298#6 -166585298#4 -4248704#15 -4248704#11 -4248704#8 -4248704#5 -4248704#4 4253449#0 4253449#4 637031477#0 637031477#1 4250582#0 4253394#0 -28400717#2 4253385 809008496"/>
</vehicle>
<vehicle id = "veh29" type= "veh_passenger" depart="18025" >
<route edges =" -329553#2 -20638866 120755374#15 -20201506#1 586978024#0 -230547768 8402463#0 8402463#1 8199521#0 242047471#1 242047471#2 -8402490#1 -8402490#0 -36719933#3 -36719933#1 -36719933#0 -207977706#6 -207977706#5 -207977706#4 -207977706#2 -207977706#1 -8179323#10 -8117333#5 -8117333#2 -8117338#1 -8117338#0 -652084518#0 4307713 -667932992#2 2624008#3 210321007#0 210322343 239268119#0 239268119#1 239268116 25654593#0 -898443087#1 -17998948 17998945 259918585#1 2624007#0 239268117#0 61904430#0 61904430#4 164587415#0 164587415#4 30745907 25651230#0 25651208 245284840 -237323557#1 -201783839#1 -8117353#2 2818478 753618490 198882222#0 198882222#3 157573005#1 250754902#0 7742369#0 7742369#4 753621324#0 753621321#0 198882134#0 198882134#1 246019110#0 198882135#0 198358155#0 325227908#0 685334339#0 969804220 18017473 8258986 257005240#0 -181799764#3 -181799764#2 -202053019#8 -202053019#4 -534024688#5 -534024688#4 -176022354#2 176022355#0 14351526#3 -534087835#10 -197881958 -31324122#5 2415103#0 38907609#0 813749605 210335525#0 203982569#0 197477212 203981674 2467171 690824735#0 47047809#0 609061152#0 670636345 609061150 201759853#2 496742426 496742428#0 496742427 201760880#0 201760880#1 10879272 201756812#0 201756812#2 201756812#3 201756812#6 201756812#10 201756812#14 -257776873#2 643233292#0 -4340873#1 643233290#0 534031400#0 534031400#1 534031400#2 534031400#5 534031400#6 -257776031#1 -166594099#1 -612050466 -4253423 4253416#2 4253416#3 4253406 534033248#5 -100514387#3 -596680098#8 -596680098#3 -657134509#1 -693294644#1 -780411383 886590029 886590033 888020107#0 -888020115#1 -4253691#5 -4253691#1 -578174541 -578170386 -978195958 -978195961#0 4253982"/>
</vehicle>
<vehicle id = "veh30" type= "veh_passenger" depart="21630" >
<route edges =" -8385193#1 -7742910#2 -7742910#1 236957433#4 236957433#5 236957433#7 236957433#17 199773280 246017138#0 38809716 210324553#4 4471812#0 4471812#3 4471812#5 4471812#8 246017141#3 39188797#0 25360211 259296871#1 259296871#5 636624667#0 23179775#0 23179775#4 23179775#8 636624667#6 363821070#0 363821070#1 39188796#0 -25360212 -47048378#2 6578289#0 6578289#3 31643893#0 -19210470#7 -19210470#6 -19210470#1 -31731184#4 -31731184#2 8173089#2 8173089#4 8173089#5 25359285#10 -8179132#6 25859274#0 -8179132#1 76590370#2 238913756#1 -25359279 835476530#4 30199824#2 30199824#5"/>
</vehicle>
<vehicle id = "veh31" type= "veh_passenger" depart="21630" >
<route edges =" -403510503 204348401 -23180924 -227833720#0 -230242293 -30728820#0 192380841 -209694797#2 -230843464 2428027#3 30692658 -233333808#3 -605424626 969804220 43585219#0 -688133748#1 -401508456 -197881706 -231813686#2 -598147041#4 313842644 -2418032#3 -2513470#5 202053028#2 202053028#4 202053028#6 99961288#0 99961288#3 99961288#5 311561502 18942158#0 -4884668#7 -6578208 -4884668#1 -4884668#0 797329175 386356201 -238913756#8 -238913756#7 -25359278 -16295338#2 8386786#1 238913649#0"/>
</vehicle>
<vehicle id = "veh32" type= "veh_passenger" depart="21630" >
<route edges =" 17943462#0 8385203 34022688#1 34022688#2 -8385199#2 -8385199#1 -4798862 4471755#0 4859717#12 23046215#4 23046215#6 199773279#2 199773279#3 753622268#0 753622268#3 246017140 753622270#0 199773280 246017138#0 38809715#0 130886148#0 47009458#0 210336040#0 130886143 164441840#0 130886156#0 201783838#0 2818478 753618490 198882222#0 198882222#3 47009454 198882212#0 -7742369#6 -27813827#1 -19209657#2 -19209657#1 842034460#0 851321120 851321117#1 851330426#1 851330426#3 851330435#1 851330425 -18942163#4 -18942163#2 -18942160 -30286837#1 -30286837#0 2450764 99961287#1 99961287#2 99961287#3 99961287#4 32139530 -6578219#1 -47048136#3 -238913756#12 -8386794#6 8386793#4 8386793#7 -2466941#7 -2466941#6 8386795#0 8386795#1 34293999 119579783#0 34294002"/>
</vehicle>
<vehicle id = "veh33" type= "veh_passenger" depart="21630" >
<route edges =" 23180952 194508904#1 23180951#1 -23180965#2 -23180965#1 23180978 243464995#0 -201487428#2 -199771389#0 -199514520#3 -199514520#2 -199514520#0 -199771388#3 -199771388#1 -202052944#8 -202052944#7 -202052944#6 -202052944#2 -202052944#1 -202052944#0 -230843110#7 -230843110#3 -538314349#2 -538314349#1 -199514512#0 -201487146#2 -237559984#3 -30727695#1 30727694#0 -196819984 -30726570 -27289094#4 -27292880#2 16297002#7 2418095#7 -199518163#3 -534024689#3 -534024689#2 -534087836#2 -372683468#4 -372683468#0 -813749604#6 -31324113#3 38907609#0 813749605 210335525#0 203982569#0 197477212 203981674 2467171 690824735#0 47047809#0 609061152#0 670636345 609061150 201759853#2 496742426 496742428#0 496742427 77105053#0 859453205#0 250325170#2 -34083185#1 2514020#0 2514020#1 2514020#4 2483868#4 -166585298#13 -166585298#10 4254629 4254627#2 4254638#2 4254643 -6266181#3 -4248704#15 -4248704#11 -4248704#8 -4248704#5 -4248704#4 4253449#0 4253449#4 637031477#0 637031477#1 4250582#0 4253394#0 -28400717#2 4253385 809008496"/>
</vehicle>
<vehicle id = "veh34" type= "veh_passenger" depart="21630" >
<route edges =" -329553#2 -20638866 120755374#15 -20201506#1 586978024#0 -230547768 8402463#0 8402463#1 8199521#0 8199521#1 -36719933#13 51175591#0 51175591#1 -38732022 8402490#1 242047471#3 -8402465#0 -36719933#1 -36719933#0 -16776906#2 -16776906#1 -25654782#1 -25654782#0 991376782 -878794032#1 8376176#0 8376176#1 -207977706#1 -8179323#10 -8179323#3 -8179323#0 4049119#0 253285243#0 253285243#1 4307713 -667932992#2 2624008#3 210321007#0 210322343 239268119#0 239268119#1 239268116 25654593#0 25654593#1 -56131941 56131940#0 17998945 259918585#1 2624007#0 239268117#0 61904430#0 61904430#4 164587415#0 164587415#4 30745907 25651230#0 25651208 245284840 -237323557#1 -201783839#1 -8117353#2 2818478 753618490 198882222#0 198882222#3 47009454 198882212#0 753621324#0 753621321#0 198882134#0 198882134#1 246019110#0 198882135#0 198358155#0 325227908#0 685334339#0 969804220 18017473 228479564#1 686204226 237559987 686204498#0 686204498#2 686204498#7 30691665 -181799764#5 -181799764#3 -181799764#2 -202053019#8 -202053019#4 -534024688#5 -534024688#4 -534024688#2 -534087835#10 -197881958 -31324122#5 2415103#0 38907609#0 813749605 210335525#0 203982569#0 197477212 203981674 2467171 690824735#0 47047809#0 609061152#0 670636345 609061150 201759853#2 496742426 496742428#0 496742427 201760880#0 201760880#1 10879272 201756812#0 201756812#2 201756812#3 201756812#6 201756812#10 201756812#14 -257776873#2 -257776874#2 -257776874#0 -4340904#2 18942156#0 18942156#3 4340872 643233291#0 643233290#0 534031400#0 534031400#1 534031400#2 534031400#5 534031400#6 -257776031#1 -166594099#1 -612050466 -166594100 -596678291 -596678299#2 -100514387#3 -596680098#8 -596680098#3 -657134509#1 -693294644#1 -780411383 886590029 886590033 888020107#0 -888020115#1 -4253691#5 -4253691#1 -578174541 -578170386 -978195958 -978195961#0 4253982"/>
</vehicle>
</routes>
