<?xml version="1.0" encoding="UTF-8"?>
<routes xmlns:xsi="http: // www.w3.org/2001/XMLSchema-instance" xsi:noNamespaceSchemaLocation="http: // sumo.dlr.de/xsd/routes_file.xsd">
<vType id="veh_passenger" vClass="passenger"/>

<vehicle id = "veh0" type= "veh_passenger" depart="0" >
<route edges =" -813722269#3 -813722269#3.7 -813722269#3.48 -813722269#3.84 -813722269#3.86 620762213#0 620762213#0.9 620762213#0.88 620762212#0 620762212#0.8 620762212#0.52 6343949#6 6343949#7 6343949#8 6343949#8.52 6343949#10 6343949#10.49 6343949#12 6343949#12.47 -525497324#3 -525497324#2 243349944#4 243349944#4.53 243349944#6 243349944#7 -460419011#3 -460419011#2 6464126#3 6464126#3.49 6464126#5 -460419028#3 243349338#0 243349338#0.18 243349338#1 243349338#2 243349338#3 243349338#3.49 243349338#5"/>
</vehicle>
<vehicle id = "veh1" type= "veh_passenger" depart="0" >
<route edges =" -6457203#16 -6457203#16.59 975126260#0 975126260#0.49 -6505136#16 6368504#5 6368504#5.48 6368504#7 6368504#7.50 -6513783#8 -6513783#7 37657905#3 37657905#3.48 37657905#5 37657905#5.10 37657905#5.46 37657905#7 37657905#7.49 476409329 -6383185#5 6384373#1 6384373#2 6384373#2.45 6384373#2.56 -65588097#1 -65588097#1.119 337818330 6463035#0 6463035#0.14 6463035#0.38 6463035#3 -6495801#0 -185485132#12 -185485132#12.125 -185485132#11 -185485132#11.16 243349945#9 243349945#9.50 -6494975#8 -6494975#7 -6494975#6 -6494975#6.81 256994205#3 428246847#0 428246847#0.8 428246847#0.22 6386110#0 6386110#0.16 6386110#0.25 6386110#0.55 -243349338#6 -243349338#6.14"/>
</vehicle>
<vehicle id = "veh2" type= "veh_passenger" depart="0" >
<route edges =" -6522868 -6403883#7 -6403883#6 -6403883#5 -6403883#4 -6403883#3 -6403883#2 158882505#7 158882505#8 8111709#0 8111709#0.47 8111709#2 8111709#2.49 8111709#4 8111709#4.49 -6513783#5 6384359#8 6384359#9 6384359#9.26 -6381494#3 -6381494#3.43 6463017#6 6463017#6.48 -6386837#0 337739268 337739268.124 337739267#0 337818462 337818462.3 337818462.6 337739271#1 337739271#1.6 337739269#0 -460419011#4 243349944#8 -801995081#5 -801995081#5.197 -801995081#5.209 -801995081#2 -801995081#2.109 -801995081#0 243339793#4 243339793#5 243339793#6 243339793#6.50 243339793#6.74 -22917112 -185485118#1 6514312#0 6514312#0.70 -6523501#6 -6523501#6.6 185485127#1 -6494970#4 -6494970#4.172 -6494970#2 -6494970#2.4 -6494970#2.100 6358721#0 6358721#0.9 6415147#4 6415147#5 6415147#6 6351349#2 6351349#3 6351349#3.107 6351349#5 -185483733 -6414318#4 -157167355#0"/>
</vehicle>
<vehicle id = "veh3" type= "veh_passenger" depart="0" >
<route edges =" 817434294 817434294.10 817434294.36 817434294.44 817434294.63 817434294.119 6343949#0 6343949#0.7 6343949#0.86 6343949#3 6343949#3.9 6343949#3.49 620762212#3 6430729#6 6430729#6.47 6430729#6.48 6430729#9 6430729#9.48 6430729#11 6430729#11.51 6430729#13 6430729#13.48 6430729#15 6430729#15.48 6430729#17 6430729#17.51 -620762224#0 -66558981#7 -66558981#7.65 -66558981#7.83 -66558981#7.105 -66558981#7.123 -66558981#2 -66558981#2.131 -66558981#2.234 525497323#2 525497323#2.81 -481291488#2 -481291488#1 -481291488#0 -481291488#0.69 -481291488#0.82 -6447971#10 -6447971#10.11 -6447971#9 -6447971#8 -6447971#7 -6447971#6 -6447971#5 -6447971#4 169917351#6 169917351#7 169917351#7.49 169917351#9 169917351#9.48 169917351#9.87 169917351#12 169917351#12.9 169917351#12.42 169917351#12.90 -6360239#3 -6360239#3.6 -6360239#3.69 -6360239#3.102 6487445#0 6487445#0.8 6415147#0 6415147#0.61 6449462#3 6449462#3.7 6449462#3.50 6449462#3.60 6449462#3.72 6449462#3.87 795669782#0 795669782#0.54 795669782#2 6371720#2 6371720#3 157167355#0"/>
</vehicle>
<vehicle id = "veh4" type= "veh_passenger" depart="3605" >
<route edges =" -813722269#3 -813722269#3.7 -813722269#3.48 -813722269#3.84 -813722269#3.86 620762213#0 620762213#0.9 620762213#0.88 620762212#0 620762212#0.8 620762212#0.52 620762212#3 6430729#6 6430729#6.47 6430729#6.48 -65588100#4 -65588100#4.73 -65588100#4.110 6343949#7 -8071898#2 6430729#11 6430729#11.51 65588093#3 292812445#3 292812445#3.49 6464042#0 6464042#0.76 6463017#2 6463017#2.44 6463017#2.48 -6513783#1 -6513783#1.10 -6513783#0 -525497324#8 6430729#17 6430729#17.51 -620762224#0 -620762218#5 -620762218#5.44 -620762218#5.106 -525497324#2 -525497324#1 -525497324#0 -6512920#11 -6512920#11.12 -6512920#11.49 -6512920#11.62 -6512920#11.76 -6512920#11.147 293775902#12 293775902#12.3 293775902#12.50 -6481166#11 -6481166#11.122 -6481166#11.125 6464138#14 -481291488#1 -481291488#0 -481291488#0.69 -481291488#0.82 243339793#0 243339793#0.48 460419011#1 460419011#1.11 6464126#3 6464126#3.49 -801995081#0 -801995082 -6380913#14 -6380913#13 6425675 -460419024#4 -460419024#4.23 -460419024#4.72 -460419024#4.91 -460419024#4.105 -460419024#4.115 -460419028#7 -460419028#7.7 -460419028#7.33 -460419028#7.45 -460419028#4 -460419028#3 243349338#0 243349338#0.18 243349338#1 -22917113#2 -6464126#8 -6464126#8.50 -6360256#1 -6360256#1.102 243339793#6 243339793#6.50 243339793#6.74 -22917112 481291012#0 481291012#0.24 481291012#0.32 185485132#2 185485132#2.104 243339793#11 243339793#11.47 -6494975#0 -6494975#0.7 481291012#5 481291012#5.49 481291012#7 481291012#7.20 8071924#0 8071924#0.13 -6391677 926425191#4 926425191#4.20 -6472293#3 -6472293#2 6507813#1 6507813#1.41 6507813#1.49 -6501822#1 6507818#0 6396312#0 -185485127#10 6501822#3 6463541#0 6396312#2 185485117#3 -6449970#4 6463541#2 6463541#2.38 6463541#2.41 6506505#2 6506505#3 -259277920#1 -259277920#0 -259277920#0.32 -259277920#0.50 -8071924#5 -8071924#4 6472293#6 6472293#6.106 795671506#0 795671506#0.46 6501822#9 6501822#9.6 6336174#0 6336174#0.42 359671039#1 359671039#2 243349338#10 -6449970#11 6464130#4 -6506505#5 6336174#5 243349331#1 243349331#1.24 6464130#6 243349941#5 243349941#6 243349941#6.114 878126486#0 878126486#0.41 878126486#0.73 878126486#0.75 -352434868 -352434868.9 -263665039 -263665039.32 -263665039.58 -263665039.72 -438895608#1 -438895608#0 -438895608#0.27 -160624556 -160624556.131 -243349338#8 -795671505#2 -6464126#16 -6464126#16.47 -6464126#14 -6464126#14.50 -6464126#12 -6464126#12.48 185485132#4 243349338#3 243349338#3.49 243349338#5"/>
</vehicle>
<vehicle id = "veh5" type= "veh_passenger" depart="3605" >
<route edges =" -6457203#16 -6457203#16.59 -6457203#15 -6457203#15.22 -6345333 -6403883#5 -6403883#4 158882511#8 158882511#9 158882511#9.51 8111707#0 8111707#0.47 6505136#15 6368504#5 6368504#5.48 6368504#7 6368504#7.50 -6513783#8 -6513783#7 37657905#3 37657905#3.48 37657905#5 37657905#5.10 37657905#5.46 336904472#3 336904472#3.37 170683231#16 170683231#16.50 170683231#16.61 6381494#12 6381494#12.56 6381494#13 6381494#13.7 6381494#13.132 6381494#15 -603522176#3 -603522176#3.50 6513783#11 6513783#11.206 656838750 -656838752 -656838752.12 -656838752.51 -242516209#3 -242516209#3.47 157284449#1 6363153#1 6363153#2 6363153#3 6363153#3.40 6363153#3.50 6363153#3.56 392673856 392673856.85 296370678#0 296370678#0.14 296370678#0.51 296370678#0.58 -481291018 -638348588#1 603522176#6 603522176#6.51 603522176#8 603522176#8.47 6383185#13 481291017#2 481291017#2.37 481291017#2.43 481291017#2.49 481291017#2.51 481291017#2.59 481291017#2.71 481291017#2.87 481291017#2.112 481291017#2.124 8071885#2 6483146#0 6483146#0.10 6483146#0.15 6483146#0.49 6483146#0.58 6483146#0.67 394736758#5 6489854#0 6489854#0.50 -6448615#7 -6448615#6 -6448615#6.24 -6448615#6.44 -6448615#6.47 -6448615#6.70 -6459736#1 -6459736#1.49 -735164739 -735164739.6 -735164739.10 -735164739.15 735164738 735164738.9 735164738.37 735164738.47 735164736 735164736.7 735164736.13 -6460085#13 -6460085#13.21 -6460085#10 -6460085#10.12 -6460085#10.42 -6460085#8 -6460085#8.39 -6460085#8.66 -476409332#3 -476409332#3.42 6383185#8 6383185#8.23 6383185#8.67 6383185#8.93 6383185#8.141 -476409333#1 -476409333#1.43 642732922 476409331 791722143#0 791722143#0.9 791722143#1 476409329 -6383185#5 -6384373#0 476409328#2 476409328#2.118 8071925#0 8071925#0.9 8071925#0.55 8071925#2 8071925#2.36 8071925#2.74 465799093#0 465799093#0.8 465799093#0.46 465799093#0.91 337818330 -460421484#1 -460421484#1.13 -6486416#2 -6486416#2.9 -6486416#2.116 805680044#1 805680044#1.7 805680044#1.49 805680044#1.91 6448612#0 6448612#0.9 6448612#2 6448612#2.70 6448612#4 6448612#4.11 6448612#6 6448612#6.328 6448612#8 -476409332#5 65588097#7 65588097#7.42 65588097#9 6523125#1 -6495798#4 -6495798#3 -6495798#2 -6495798#1 -6495798#1.232 -6495798#1.266 428315592#5 428315591#0 428315591#1 428315591#2 428315591#2.6 428315591#2.15 428315591#2.25 428315591#2.59 428315591#2.76 -912599281#1 -912599281#1.10 -912599281#1.25 -912599281#1.45 -40416127#2 -40416127#2.7 -40416127#2.26 40416130#0 6349133#3 6414237#0 6414237#0.11 -6353867#1 40416130#2 40416130#3 40416130#3.42 40416130#3.45 -243352868#1 -243352868#1.19 -170683665#11 -170683665#11.54 -6353177#4 6463035#12 6463035#12.7 -6521828#3 -6521828#3.7 -6521828#3.107 -6521828#3.133 -359671039#10 -359671039#10.86 805658294#9 805658294#9.71 808266757#0 808266757#0.7 -352434874#3 -243349945#19 -243349945#18 -359671039#6 -243349944#25 -243349944#24 -243349944#24.50 -6472289#1 -6447445#11 -6447445#10 -6447445#10.48 -6494975#6 -6494975#6.81 256994205#3 428246847#0 428246847#0.8 428246847#0.22 6386110#0 6386110#0.16 6386110#0.25 6386110#0.55 -243349338#6 -243349338#6.14"/>
</vehicle>
<vehicle id = "veh6" type= "veh_passenger" depart="3605" >
<route edges =" -6522868 6403883#8 -6428544#15 -6428544#15.8 -6428544#13 32143939 -263668130#2 -263668130#2.17 -263668130#2.32 -263668130#2.43 -263668130#2.52 -263668130#2.58 -263668130#2.67 -263668130#2.74 -263668130#2.85 -263668130#0 -6523130 428098973 428098976#0 428098976#0.28 428098976#0.31 -6428544#5 -6428544#4 -6428544#3 -6428544#3.82 -6428544#1 -6348400#1 -6348400#1.20 -6348400#1.22 -6348400#1.27 215404534#2 -6358515#1 8071895#0 -6384935#1 -6384935#1.77 -8071894#2 -8071894#1 -8071894#0 -6368518#5 -6368518#5.49 -6368518#3 -6368518#3.49 -6368518#1 -6368518#1.50 -6368518#1.97 -6368518#1.99 -6508650#4 -6508650#4.2 -6508650#4.3 -6508650#3 -6508650#3.116 -6508650#3.247 -6508650#3.259 -6508650#2 -6508650#2.140 -6508650#2.252 -256993082#5 -256993082#5.11 -256993082#3 -256993082#3.4 -256993082#3.32 -256993082#3.38 -395928755#1 -395928755#1.9 -65588116#5 -65588116#5.12 -65588116#5.38 -65588116#5.44 -65588116#5.64 -65588116#5.81 6343952#0 6343952#0.45 -6511393#7 6415868#2 6415868#2.24 6415868#2.65 -6349123#6 -6349123#6.48 -6349123#6.62 -6349123#6.115 723052304#1 723052304#1.70 6461453#3 6461453#3.11 6461453#3.61 6461453#3.77 6461453#3.91 6415868#5 158612542#8 158612542#8.37 158612542#8.77 158612542#8.79 158612542#11 158612542#11.75 158612542#11.76 -6430737#2 -6430737#2.22 -6430737#2.48 -6461453#15 -6461453#15.4 -6461453#15.17 -6461453#15.62 -6461453#15.77 -6343952#3 -6343952#3.3 -6343952#3.7 6349123#8 -6430733#4 -6430733#4.10 -6430733#1 460421473#2 460421473#2.62 621088608#0 621088608#0.43 621088608#0.48 6479778#0 6479778#0.15 6479778#2 749754758#0 749754758#0.30 749754758#0.125 -6384350#7 -6384350#7.9 -6384350#7.49 -6384350#7.88 -6366765#12 -6366765#12.5 -6366765#12.120 -6366765#9 -6366765#9.7 -6366765#9.123 6414229#4 6414229#4.5 6414229#4.47 6414229#4.88 -749754758#7 -749754758#7.3 -749754758#7.122 -6464391#12 -6464391#12.4 -6464391#12.46 -6464391#12.88 -6464391#8 -6464391#8.3 -6464391#8.64 6358524#6 6358524#6.5 6358524#6.55 -6414229#11 6374789#11 6374789#11.72 6346308#6 6346308#7 6346308#7.38 6346308#7.46 752851600#13 752851600#13.62 8071894#4 8071380#0 8071380#0.4 8071380#0.8 8071380#0.20 8071380#0.54 8071380#0.57 8071380#0.60 8071380#0.63 -158882561#3 -158882561#2 -158882561#2.11 -158882561#2.28 -158882561#2.46 -158882561#2.60 896104581#0 896104581#0.119 158882517#0 -6368665#2 -158882505#1 -158882505#1.37 -8071890#1 -8071890#1.42 -171739214#8 -171739214#7 -171739214#7.13 -171739214#7.36 -171739214#7.52 -171739214#7.90 -171739214#2 -171739214#2.11 -171739214#2.63 -6358524#2 -6358524#2.6 -6358524#2.122 -742713664#1 -742713664#1.7 -742713664#1.9 -742713664#1.19 -6358498#1 -6358498#1.87 6474762#3 6474762#3.35 6474762#3.38 6474762#3.42 6474762#3.46 6474762#3.49 6474762#3.54 95600805#0 95600805#0.117 331930455#0 331930455#0.9 331930455#0.42 331930455#0.49 331930455#0.60 331930455#0.86 623536799#0 623536799#0.9 623536799#0.30 623536799#0.39 623536799#0.58 623536799#0.61 623536799#0.92 337668911#0 337668911#0.7 337668911#0.37 337668911#0.90 171739214#10 171739214#11 171739214#12 6346524#0 158882505#3 6411908#3 6411908#4 158882511#4 -160552467#9 -160552467#8 -160552467#7 -160552467#7.43 -160552467#7.73 -160552467#7.78 171739214#15 171739214#15.31 171739214#15.57 -6403874#2 -6403874#2.90 337668916#10 6463027#0 6463027#0.20 6463027#0.21 6463027#0.23 6463027#0.25 6463027#0.26 6463027#0.28 6463027#0.31 6463027#0.33 6463027#0.35 6463027#0.37 6463027#0.39 6463027#0.76 292812446#5 8071899 6384359#0 6384359#0.22 6384359#0.45 6384359#0.50 6505136#7 6505136#7.55 6505136#7.66 6505136#7.74 6505136#7.92 6505136#7.104 8111709#2 8111709#2.49 8111709#4 8111709#4.49 757399066#0 757399066#0.51 757399066#0.87 -6381494#6 -6381494#6.57 -6381494#6.77 -6381494#6.94 -6381494#3 -6381494#3.43 -6381494#1 -6459047 -6459047.72 6513783#1 6513783#1.64 -6463017#4 -6463017#4.49 -6463017#4.52 -6463017#1 -6463017#1.51 -6505136#4 -6505136#4.10 -6505136#4.42 -6505136#4.55 -6505136#4.101 -6505136#4.110 -65588093#3 -65588093#2 -65588093#1 -65588093#1.103 -65588093#1.123 -65588093#1.126 -65588093#1.130 739843348#0 739843348#0.4 739843348#0.9 620762218#0 620762218#0.55 620762218#0.66 620762218#0.68 620762218#0.81 6440348#8 6440348#8.12 6440348#8.47 6440348#8.88 6440348#8.91 6343949#12 6343949#12.47 -525497324#3 620762218#5 620762218#5.18 620762218#5.80 343521145#0 343521145#0.47 343521145#0.69 337739267#0 337818462 337818462.3 337818462.6 337739271#1 337739271#1.6 337739269#0 -460419011#4 243349944#8 243349944#9 243349944#10 243349944#10.7 243349944#10.84 6360256#8 6360256#8.125 6360256#10 6360256#10.7 6360256#10.57 6360256#10.71 6360256#10.113 6360256#10.122 6360256#10.124 361784407#0 361784407#0.8 361784407#0.38 361784407#0.53 -22917113#7 -22917113#7.10 -22917113#7.19 243349945#6 243349945#6.48 243349945#6.88 243349945#9 243349945#9.50 6494975#9 6494975#9.108 6494975#9.119 805658294#2 805658294#2.39 243349942#2 279467136#0 279467136#0.117 279467136#0.122 6463035#8 6463035#8.49 6463035#10 6463035#10.48 -6353177#3 -6353177#3.7 -6353177#3.98 -6353177#3.134 -336908262#3 -336908262#3.49 -6472289#4 -6472289#3 -6472289#2 -243349944#22 -243349944#22.50 -243349944#20 -243349944#20.50 -6494975#7 -6447445#8 -6447445#8.50 -185485132#8 -185485132#8.81 -256994205#1 -256994205#0 -256994205#0.33 -396055524#1 -396055524#1.29 -396055524#1.40 -396055524#1.64 -396055524#1.86 460419028#0 460419028#0.11 460419028#0.49 460419028#0.79 460419028#0.95 460419028#3 460419028#4 460419028#5 460419028#5.67 460419028#5.79 460419028#5.105 460419024#0 460419024#0.9 460419024#0.19 460419024#0.34 460419024#0.53 460419024#0.102 460419024#5 460419024#5.50 460419024#5.63 460419024#5.69 -621319697#3 -621319697#3.10 -621319697#3.29 -621319697#3.34 -621319697#3.38 -6380913#11 -6380913#11.53 -6463532#3 -6463532#3.45 -6463532#1 -6463532#1.50 6447971#7 6447971#8 6447971#9 6447971#10 6447971#10.101 -353690154#16 -353690154#16.48 -353690154#14 -353690154#14.66 -353690154#14.91 -6512920#3 -6512920#3.8 -6512920#3.9 -6512920#3.19 -6512920#3.59 -6512920#3.92 486874837#0 -6481166#8 -6481166#8.162 -6481166#6 -6481166#5 -6481166#4 169917351#4 169917351#4.51 169917351#6 169917351#7 169917351#7.49 6380913#4 -6507809#6 -6507809#6.47 -6507809#4 6447971#5 6467507#4 6467507#4.48 6467507#6 6467507#6.51 6467507#8 6467507#8.87 6467507#10 6467507#10.9 6467507#10.76 6467507#10.86 6467507#13 6467507#13.11 185485118#0 185485118#0.64 185485118#0.103 185485118#0.149 6514312#0 6514312#0.70 185485132#0 185485132#0.7 481291012#2 481291012#2.49 -6494970#7 -6494970#6 -6494970#6.6 185485127#2 185485127#2.70 336908264#2 336908264#2.29 -169917351#27 -169917351#27.11 -169917351#27.76 -169917351#24 -169917351#24.6 -169917351#24.71 -6523501#2 -6523501#2.5 -6523501#2.101 460421482#3 460421482#3.8 460421482#3.48 460421482#3.55 460421482#3.72 6358721#0 6358721#0.9 6415147#4 6415147#5 6415147#6 6351349#2 642753173 6354836#3 6354836#4 6354836#5 6354836#5.54 6354836#7 6354836#7.92 6467368#4 6354794#0 6354794#1 6354794#1.121 22917677#0 22917677#0.6 22917677#0.35 22917677#0.41 -800568295#3 -800568295#3.22 -800568295#3.119 -800568295#3.122 -800568295#3.142 -800568295#3.274 6371710#0 6371710#0.8 6371282#0 6371282#3 6371282#3.9 6371282#3.15 6371282#4 6371282#4.3 6371282#6 6371282#7 157172053#4 754699003#0 754699003#1 754699003#1.6 754699003#3 754699003#3.73 -6351337#5 -6351337#5.5 -6351337#5.8 -6351337#5.119 -6351337#2 -6351337#2.7 -6485999#1 -6485999#1.42 -185483738#5 -185483738#5.100 -185483738#3 -185483738#3.11 -185483738#3.19 -185483738#2 -185483738#2.93 6371720#6 -661086629#0 -185483733 -6414318#4 -157167355#0"/>
</vehicle>
<vehicle id = "veh7" type= "veh_passenger" depart="3605" >
<route edges =" 817434294 817434294.10 817434294.36 817434294.44 817434294.63 817434294.119 816616072#4 816616072#4.7 816616072#4.62 816616072#4.121 816616072#8 816616072#8.6 816616072#8.121 158882495#0 158882495#0.6 -813722270#7 -813722270#7.11 -813722270#7.122 6430729#3 6430729#3.9 6430729#3.48 620762212#4 620762212#4.122 171739207#2 171739207#2.46 171739207#4 171739207#4.40 171739207#4.43 171739207#4.47 171739207#4.50 171739207#4.52 171739207#4.54 171739207#4.77 171739207#4.80 171739207#4.82 171739207#4.85 171739207#4.87 171739207#4.90 171739207#4.113 292812445#0 292812445#0.35 292812445#0.50 6505136#0 6505136#0.18 6505136#0.27 6505136#0.73 6505136#0.87 6505136#0.118 6463017#0 6463017#0.48 -6464042#1 -6464042#1.52 -6440348#14 6430729#15 6430729#15.48 -525497324#7 -525497324#7.39 -525497324#7.54 -525497324#7.112 -6343949#13 -6343949#13.50 -6440348#10 -6440348#10.4 -6440348#10.6 -6440348#10.48 -6440348#10.83 -620762218#2 -620762218#2.12 -620762218#2.25 -620762218#2.28 -620762218#2.38 -460423532#1 -460423532#1.17 -332092195#2 -332092195#2.43 -332092195#2.107 -349901822#3 -349901822#3.58 -825336588#1 -825336588#1.33 -349901821 -6476313#2 -6476313#2.11 -6476313#2.29 -6476313#2.98 -6476313#2.99 -6476313#2.103 -6476313#2.107 164418944#4 164418944#4.7 164418944#4.8 164418944#4.29 164418944#4.51 164418944#4.95 893866066#0 893866066#0.11 893866066#0.126 8071900#0 8071900#0.7 8071900#0.18 8071900#0.88 8071900#4 8071900#4.7 8071900#4.49 8071900#4.88 6440348#0 6440348#0.6 6440348#0.84 6440348#0.93 6440348#0.107 6440348#0.114 243349944#0 243349944#0.4 243349944#0.20 243349944#0.49 525497324#2 620762218#5 620762218#5.18 620762218#5.80 -66558981#7 -66558981#7.65 -66558981#7.83 -66558981#7.105 -66558981#7.123 -66558981#2 -66558981#2.131 -66558981#2.234 -6481166#12 -293775902#14 -293775902#14.49 -293775902#14.96 -6512920#7 -6512920#7.4 -6512920#7.122 -6512920#7.124 -6512920#5 -6512920#5.6 -6512920#5.9 -6512920#5.119 -6512920#5.124 -353690154#11 -353690154#11.4 -353690154#11.46 -353690154#11.54 -353690154#11.89 6440371#3 6440371#3.7 6440371#3.9 6440371#3.121 6440371#3.123 6440371#3.125 6440371#6 6440371#6.4 6440371#6.6 6440371#6.7 6440371#6.122 -293775902#7 -293775902#7.10 -293775902#7.49 -293775902#7.92 -293775902#3 -293775902#3.10 -293775902#3.48 -293775902#3.93 -893866064#2 -893866064#2.7 -893866064#2.122 -893866060#11 -893866060#11.7 -893866060#11.31 -893866060#11.89 -353690148#3 -353690148#3.7 -353690148#3.59 -353690148#3.121 -353690147#3 -353690147#3.7 -353690147#3.110 -353690147#3.122 -486864438#4 -486864438#4.7 -486864438#4.89 -243338979#12 -243338979#12.10 -243338979#12.11 -243338979#12.62 -243338979#9 -243338979#9.5 -243338979#9.31 -243338979#6 -243338979#6.31 -243338979#6.61 -486844941#1 -486844941#1.10 -486844941#1.46 -486844941#1.58 -486844941#1.70 -486844941#1.89 -436480243#3 -436480243#3.10 -436480243#3.19 -436480243#3.38 -6435230#9 -6435230#8 -6435230#7 -6435230#7.4 -6435230#7.24 -6435230#7.64 -347094714#7 -347094714#7.12 -347094714#7.50 -347094714#7.93 6343878#6 6343878#6.8 6343878#6.85 -6463530#9 -6463530#9.9 -6463530#9.49 -6463530#9.91 -6456044#5 -6456044#5.7 -6456044#5.86 -6456044#2 -6456044#2.8 -6456044#2.86 -6456044#2.88 -6456044#2.89 -6456044#2.90 -6456044#2.92 893868549#0 893868549#0.1 893868549#0.2 893868549#0.3 893868549#0.6 893868549#0.45 893868549#0.85 -6343878#2 -6343878#2.2 -6343878#2.6 -6343878#2.85 617435760#1 617435760#1.45 617435760#1.47 617435760#1.87 6435230#3 6435230#3.58 893868549#7 893868549#7.9 893868549#7.13 893868549#7.94 893868549#7.109 893868549#7.125 893868549#7.184 893868549#12 893868549#12.7 893868549#12.90 901474739#0 901474739#0.7 901474739#0.111 -22917110#2 -22917110#2.6 -22917110#2.86 901477545#4 901477545#4.7 901477545#4.69 6440364#4 6440364#4.6 6440364#4.86 901474739#7 901474739#7.8 901474739#7.82 6507809#0 6507809#0.7 6507809#0.88 6507809#3 -6447971#4 -6447971#3 -6447971#3.29 -6447971#3.37 -6447971#3.61 881403606#0 881403606#0.12 881403606#0.42 881403606#0.83 881403606#0.85 22917665#0 22917665#0.7 -6445835#1 -6445835#1.53 256996973#0 256996973#0.33 256996973#0.45 256996973#0.49 256996975#0 256996975#0.50 256996975#0.62 256996975#0.65 256996975#0.91 256996976#0 256996976#0.11 256996976#0.20 256996976#0.46 256996976#0.79 6487445#0 6487445#0.8 6415147#0 6415147#0.61 -6449462#2 -6449462#2.42 -6449462#2.79 460421482#0 460421482#0.8 460421482#0.73 6497081#0 6497081#0.8 6497081#2 6497081#2.38 6497081#2.47 6497081#2.53 6497081#2.60 6497081#2.67 6497081#2.70 6497081#2.74 6497081#2.81 6497081#2.120 6497081#6 6497081#6.44 -6414318#2 -6414318#2.8 795669782#2 795669782#3 795846818#0 795846818#0.1 460418978#3 460418978#3.9 460418978#3.49 -6497081#10 -6497081#10.7 6371720#3 157167355#0"/>
</vehicle>
<vehicle id = "veh8" type= "veh_passenger" depart="7210" >
<route edges =" -816616074#1 -816616074#1.10 -816616074#1.14 -816616074#1.119 428341734#4 428341734#4.8 428246439#0 428246439#0.14 428246438#0 428246438#0.8 428246440#0 428246440#0.62 -800744528#1 -800744528#1.8 -800744528#1.16 -800744528#1.37 -800744528#1.72 826314456#0 826314456#0.9 826314456#0.50 826314456#0.96 826314456#0.103 349901821 825336588#0 825336588#0.7 349901822#2 349901822#2.21 332092195#0 332092195#0.9 332092195#0.74 460423532#0 460423532#0.2 620762218#0 620762218#0.55 620762218#0.66 620762218#0.68 620762218#0.81 -6440348#7 -6440348#7.9 243349944#0 243349944#0.4 243349944#0.20 243349944#0.49 243349944#4 243349944#4.53 -66558981#2 -66558981#2.131 -66558981#2.234 525497323#2 525497323#2.81 40416132#0 40416132#0.19 -460419011#2 -460419011#1 -460419011#1.97 -460419011#0 -460419011#0.11 -486874837#3 -486874837#3.48 -6447971#9 -6447971#8 263669069#1 263669069#1.41 263669069#1.48 263669069#1.70 460419008#0 460419008#0.50 6380913#12 6380913#13 6380913#14 481291014#0 481291014#0.53 353690153#0 353690153#0.8 353690153#0.25 353690153#0.87 6360256#0 6360256#0.104 -243339793#5 -460419028#4 6464126#6 6360256#2 6360256#2.128 6360256#4 6360256#5 6360256#6 6360256#6.122 6360256#8 6360256#8.125 243349945#3 243349945#3.5 243349945#3.45 243349945#3.49 -22917113#6 243349944#15 243349944#15.48 243349944#17 243349944#17.50 -6494975#7 -6494975#6 -6494975#6.81 -6494975#4 -6494975#4.53 243349338#5"/>
</vehicle>
<vehicle id = "veh9" type= "veh_passenger" depart="7210" >
<route edges =" 6457203#17 6457203#18 6457203#18.8 6457203#18.11 37686291#0 37686291#0.47 37686291#0.88 37686291#0.94 37686291#0.98 157284449#0 157284449#0.6 157284449#0.28 157284449#1 6363153#1 6432879#0 6432879#0.194 6463331#2 6463331#2.38 6463331#2.41 504279350#0 504279350#0.3 504279350#0.4 504279350#0.6 504279350#0.9 6363153#3 6363153#3.40 6363153#3.50 6363153#3.56 392673856 392673856.85 6434058#0 6434058#0.15 6434058#0.33 6434058#0.56 6434058#0.73 6434058#0.96 6434058#0.116 6434058#0.128 6386823 6386823.80 620762209 620762209.13 620762209.35 -6438239 -6438239.24 -6438239.117 481291021#0 6444679 481291024#0 7978482 -6383185#20 -6383185#20.7 -6383185#20.14 -6383185#20.31 -6383185#20.76 -6383185#20.87 -6383185#20.95 -6383185#18 -6383185#18.50 -6383185#18.92 -6383185#15 -6383185#15.9 -481291017#1 -481291017#1.44 -481291019#1 -481291019#1.48 -638348588#1 -603522176#5 -603522176#5.43 -603522176#5.84 -603522176#3 -603522176#3.50 -6513783#10 -603522173#1 -603522173#1.50 -975126260#3 -975126260#3.49 -975126260#1 -975126260#1.48 -6323849#6 -6323849#6.43 -6403883#6 -6403883#5 -6403883#4 -6403883#3 -6403883#2 158882505#7 6469837#2 6469837#3 158882511#9 158882511#9.51 -6457203#11 -6457203#11.20 -6457203#11.36 -6457203#11.44 -6457203#11.89 -6457203#11.100 8111708#0 8111708#0.2 8111708#0.5 8111708#0.7 8111708#0.9 8111708#0.12 8111708#0.14 8111708#0.45 8111708#0.50 -6505136#13 -6505136#13.115 8111709#2 8111709#2.49 6464042#8 6464042#8.123 37657905#0 37657905#0.5 37657905#0.47 -6513783#6 757399066#0 757399066#0.51 757399066#0.87 6381494#7 6381494#7.5 6381494#7.7 37657905#5 37657905#5.10 37657905#5.46 37657905#7 37657905#7.49 476409329 6383185#6 6383185#7 6383185#8 6383185#8.23 6383185#8.67 6383185#8.93 6383185#8.141 -476409333#1 -476409333#1.43 476409334#0 603522176#8 603522176#8.47 603522176#10 603522176#10.44 603522176#10.46 -8071885#0 -8071885#0.116 735164736 735164736.7 735164736.13 -6460085#13 -6460085#13.21 6523125#0 6523125#1 -6495798#4 -6495798#3 476409332#7 -6356667#2 170683231#2 170683231#3 6448612#8 -476409332#5 -476409332#4 -6460085#6 -6460085#6.27 -6460085#5 -6460085#5.109 -6460085#4 -6460085#4.20 -6460085#3 -6460085#3.55 -6460085#1 -6460085#1.27 -6460085#1.86 -6460085#1.119 465799093#0 465799093#0.8 465799093#0.46 465799093#0.91 337818330 428315592#0 428315592#0.12 428315592#0.53 428315592#0.95 -6448612#3 -6448612#3.16 6463035#3 -6495801#0 805680044#8 805680044#8.47 805680044#10 279467136#0 279467136#0.117 279467136#0.122 279467136#1 279467136#2 279467136#2.29 279467136#2.52 40416127#0 40416127#0.9 40416127#0.27 535540393#0 535540393#0.12 535540393#0.32 535540393#0.47 912599280 337818332#0 337818332#0.7 337818332#0.70 -19000995#2 -19000995#2.7 -19000995#2.29 -6349133#3 -6349133#2 -6349133#2.120 -6349133#1 6463035#10 6463035#10.48 6353177#4 -170683665#8 6353867#0 6353867#1 6414237#1 -6353172#1 40416130#3 40416130#3.42 40416130#3.45 243352868#2 243352868#2.122 6414237#6 6414237#6.7 6414237#6.34 -6369950#6 -6369950#6.6 -6369950#6.120 -6369950#3 -170683665#13 -6521828#4 -6521828#3 -6521828#3.7 -6521828#3.107 -6521828#3.133 -359671039#10 -359671039#10.86 -805658294#8 -160624558#2 243349945#17 243349945#18 243349945#19 352434874#3 352434874#4 352434874#4.20 352434874#4.33 352434874#4.43 352434874#4.55 352434874#4.68 352434874#4.74 6474773#1 6474773#1.19 6474773#1.72 6474773#1.81 6477474#0 6477474#0.14 6477474#0.21 6511939#0 6511939#0.25 6511939#0.34 6511939#0.44 6511939#0.53 6511939#0.62 6511939#0.72 6511939#0.81 6511939#0.90 6511939#0.100 6472195#0 6472195#0.10 6472195#0.14 6472195#0.18 6472195#0.42 6472195#0.49 6472195#0.55 6472195#0.56 6472195#0.62 6472195#0.71 6463022#4 6463022#4.52 6463022#4.58 6463022#4.66 642739853 642739853.63 642739853.66 6516132 6516132.2 6516132.5 6516132.73 6516132.82 6516132.90 6463022#7 6463022#7.24 6463022#7.39 6463022#7.50 8071849#3 243352637#0 243352637#1 243352637#1.16 243352637#1.33 243352637#1.49 243352637#1.68 -6344425#1 -6344425#1.37 -6344425#1.51 -6344425#1.108 -6344425#1.115 -6344425#1.134 -6430750#2 -6430750#2.7 -6430750#2.19 -6354200#1 -6343958#2 337698847#2 337698847#2.12 337698847#2.26 337698847#3 337698847#3.11 337698847#3.25 337698847#3.37 337698847#4 337698847#4.16 337698847#4.27 337698847#4.36 337698847#4.45 -336908261#1 -336908261#1.8 -336908261#1.34 -336908261#1.75 -32135618#2 -32135618#2.30 -6409627#1 -6409627#1.40 -808266757#3 -808266757#3.78 -263665040#3 -263665040#3.11 -263665040#3.21 -263665040#3.100 -263665040#2 -263665040#2.22 -263665040#1 -263665040#1.27 -263665040#1.83 -263665040#1.86 6447445#18 6447445#18.41 6447445#18.62 -243349941#8 878126486#0 878126486#0.41 878126486#0.73 878126486#0.75 -352434856 -352434856.9 -460419027 -243349331#3 -243349331#3.51 -243349331#3.121 6464130#6 -243349941#4 -243349941#3 -243349941#2 -6425683#3 -6425683#3.40 -6425683#1 -6425683#0 6449970#6 6449970#6.84 6449970#8 6449970#9 6336174#4 6506505#5 6506505#6 6506505#6.83 -243349338#12 -243349338#12.2 6449970#12 532125609#0 -6447445#15 -359671039#4 -359671039#4.11 -438895608#0 -438895608#0.27 438895607 438895607.119 160624558#0 160624558#0.9 160624558#0.16 -243349944#24 -243349944#24.50 -243349944#22 -243349944#22.50 -22760521#3 -22760521#2 -22760521#2.81 -22760521#2.121 428246847#0 428246847#0.8 428246847#0.22 6386110#0 6386110#0.16 6386110#0.25 6386110#0.55 -243349338#6 -243349338#6.14"/>
</vehicle>
<vehicle id = "veh10" type= "veh_passenger" depart="7210" >
<route edges =" -6522868 6403883#8 -6428544#15 -6428544#15.8 -6462093 -6462093.45 -6462093.54 -6462093.65 -6462093.80 -6462093.95 -6462093.117 -6462093.128 -6462093.141 -6462093.175 -6323849#1 -6323849#1.28 -6411908#6 -8071379#1 -8071379#1.46 6346524#4 6346524#4.124 6346524#4.138 6346524#7 -6428544#10 -6428544#10.8 -6428544#10.15 -6428544#10.34 -6428544#10.40 -6428544#10.45 -6428544#10.52 -6428544#6 428098976#3 428098976#3.15 428098976#3.23 -8071658#2 -8071381#2 -6428544#4 -6428544#3 -6428544#3.82 -6358515#2 -6358515#1 -6358515#0 8071894#1 8071894#2 8071894#3 8071894#4 -6470834 -6470834.4 -6470834.8 -6470834.12 -428098986 -428098986.2 -428098986.6 -428314467 -428314467.16 -428314460 -428098985#1 -428098985#1.1 621283354 158882511#0 158882511#1 158882511#1.35 -6346524#2 158882517#2 -6411908#3 -158882505#3 -158882505#2 6368665#2 -158882517#0 -896104580#1 -896104580#1.68 -428098979#1 -428098979#1.6 -428314461 -428314458 -428098983 -428098983.7 -428098980#1 -428098980#1.12 -621283351#2 -621283351#2.12 -621283351#2.21 -8071890#1 -8071890#1.42 171739214#9 -337668911#3 -337668911#3.39 -337668911#3.92 -337668911#3.122 337668916#0 337668916#0.6 337668916#0.48 337668916#0.88 -6346526#3 -6346526#3.8 -6346526#3.30 -6346526#3.122 158882495#0 158882495#0.6 171739207#0 171739207#0.49 160552467#0 337668916#8 337668916#8.47 337668916#10 337668916#11 337668916#11.20 337668916#11.35 8071899 6384359#0 6384359#0.22 6384359#0.45 6384359#0.50 6384359#4 6384359#4.13 6384359#4.31 6384359#4.51 6384359#6 6384359#6.48 6384359#8 6384359#9 6384359#9.26 -6381494#3 -6381494#3.43 6463017#6 6463017#6.48 -6386837#0 337739268 337739268.124 337739267#0 337739267#1 -481291488#10 -481291488#10.44 -481291488#10.61 -481291488#10.85 -481291488#10.132 -481291488#10.142 243349944#7 -460419011#3 40416132#1 40416132#1.90 256994206#0 256994206#0.8 256994206#0.43 256994206#0.60 460419028#0 460419028#0.11 460419028#0.49 460419028#0.79 460419028#0.95 243349338#0 243349338#0.18 243349338#1 22917113#3 256994205#1 -185485132#6 -185485132#6.52 -185485132#4 6464126#11 6464126#11.50 -6494975#1 -6494975#1.103 -6494975#0 -6494975#0.7 481291012#5 481291012#5.49 481291012#7 481291012#7.20 8071924#0 8071924#0.13 -6391677 -926425191#3 -926425191#2 -926425191#1 -926425191#1.73 -6523501#6 -6523501#6.6 -185485127#0 -6452520#7 -6452520#7.84 -6452520#5 -6452520#5.4 -6452520#5.85 -6452520#2 -6452520#2.4 -6452520#2.101 460421482#0 460421482#0.8 460421482#0.73 6497081#0 6497081#0.8 6415147#3 6415147#4 6415147#5 -6489809#1 -6489809#1.47 6391682#0 6391682#0.62 6507813#0 6507813#1 6507813#1.41 6507813#1.49 6501822#2 -185485127#9 -185485127#9.41 -185485127#9.47 6472293#3 6472293#4 6472293#4.162 6472293#6 6472293#6.106 795671505#0 795671505#0.10 795671505#0.55 795671505#2 243349338#8 160624556 160624556.10 438895608#0 438895608#0.54 -359671039#3 243349338#10 243349338#11 243349338#11.79 -6506505#7 -6506505#7.50 -6464130#4 -6449970#10 -6336174#3 -6336174#3.40 359671039#1 -6464130#1 -6464130#1.43 -6501822#11 -6501822#10 -6501822#9 -6501822#9.25 -6501822#8 -6501822#8.7 -6501822#7 8071924#5 -6396312#4 -6396312#4.43 185485117#3 -6449970#4 6463541#2 6463541#2.38 6463541#2.41 -6506505#1 -6506505#1.22 -6467510#1 -6467510#1.38 -6449970#2 -185485127#11 -6396312#0 -6507818#0 -6501822#0 -6501822#0.165 -256996977#7 -256996977#7.12 -256996977#7.47 6351349#0 6351349#0.4 6351349#0.39 6415147#7 6354836#1 6354836#1.40 -642753173 6351349#3 6351349#3.107 256997441#6 256997441#6.46 6354836#4 6354836#5 6354836#5.54 6354836#7 6354836#7.92 6467368#4 6354794#0 6354794#1 6354794#1.121 6354794#3 6354794#3.8 6354794#3.120 754699003#1 754699003#1.6 -6367253#5 6496652#6 -22917678#2 -22917678#2.8 -22917678#2.134 -6367253#1 -6367253#1.137 -6467368#2 6351337#0 -6485999#1 -6485999#1.42 -185483738#5 -185483738#5.100 -185483738#3 -185483738#3.11 -185483738#3.19 -185483738#2 -185483738#2.93 -185483738#0 -6414318#4 -157167355#0"/>
</vehicle>
<vehicle id = "veh11" type= "veh_passenger" depart="7210" >
<route edges =" 817434294 817434294.10 817434294.36 817434294.44 817434294.63 817434294.119 6343949#0 6343949#0.7 6343949#0.86 6343949#3 6343949#3.9 6343949#3.49 6343949#6 6343949#7 8071898#3 620762214 332092195#0 332092195#0.9 332092195#0.74 -22917111#30 -22917111#30.9 -22917111#30.50 -22917111#30.96 8071900#4 8071900#4.7 8071900#4.49 8071900#4.88 8071900#8 8071900#8.6 8071900#8.7 8071900#8.49 8071900#8.53 -525497324#0 525497323#0 525497323#0.50 -6481166#12 -6481166#11 -6481166#11.122 -6481166#11.125 -6481166#10 -6481166#10.6 -6481166#10.8 -6481166#10.120 353690154#15 353690154#15.50 -6447971#10 -6447971#10.11 -486874837#1 -6481166#8 -6481166#8.162 -465971499#1 -465971499#1.88 -512168130#2 -512168130#2.10 -512168130#2.12 -512168130#2.65 -512168130#2.197 -901474741#2 -901474741#2.7 -901474741#2.9 -901474741#2.88 -876005346#6 -876005346#6.6 -876005346#6.69 -22917110#5 -22917110#5.7 -22917110#5.84 -22917110#2 -22917110#2.6 -22917110#2.86 -6346769#4 -6346769#4.6 -6346769#4.27 -6346769#4.65 -6346769#4.102 6506833#0 6506833#0.9 6506833#0.37 6506833#0.54 6506833#0.84 22917663#11 22917663#11.6 22917663#11.23 22917663#11.87 6465130#3 6465130#3.8 6465130#3.46 6465130#3.84 6465130#7 6465130#7.8 6465130#7.44 6465130#7.70 6465130#7.74 22760519#3 22760519#3.9 22760519#3.21 22760519#3.33 22760519#3.91 -243338978#10 -243338978#10.11 -243338978#10.41 -243338978#10.48 -243338978#10.78 -243338978#6 -243338978#6.8 -243338978#6.83 -243338978#3 -243338978#3.21 -243338978#3.34 -243338978#3.83 901474740#0 901474740#0.9 901474740#0.50 901474740#0.58 901474740#0.104 901477546#0 901477546#0.5 901477546#0.47 901477546#0.85 6507809#0 6507809#0.7 6507809#0.88 6507809#3 6447971#5 6467507#4 6467507#4.48 6467507#6 6467507#6.51 -6380913#5 -6507809#6 -6507809#6.47 -6515975#5 -6515975#5.48 -169917351#6 -6447971#3 -6447971#3.29 -6447971#3.37 -6447971#3.61 256996978#0 256996978#0.7 256996978#0.68 256996973#0 256996973#0.33 256996973#0.45 256996973#0.49 6380913#0 6380913#0.8 6380913#0.45 6380913#0.104 169917351#9 169917351#9.48 169917351#9.87 6516509#15 6516509#15.7 6516509#15.35 6516509#15.48 6516509#15.68 6516509#15.70 6516509#15.79 6516509#15.84 6516509#15.98 6516509#15.101 6461236#0 6461236#0.9 6461236#0.24 6461236#0.44 6461236#0.58 6461236#0.60 6384260#3 6384260#3.54 -6487445#4 -6487445#4.15 -6487445#4.55 6415147#0 6415147#0.61 6449462#3 6449462#3.7 6449462#3.50 6449462#3.60 6449462#3.72 6449462#3.87 795669782#0 795669782#0.54 -6414318#0 -6414318#0.76 -6414318#0.81 460418987#0 460418987#0.4 460418987#0.8 460418987#1 6371720#0 6371720#0.7 795669782#3 795846818#0 795846818#0.1 -460418978#2 -460418978#2.5 -460418978#2.73 -460418994#2 -460418994#2.8 -460418994#2.35 -460418994#2.70 -337742188#11 -337742188#11.8 -337742188#11.28 -337742188#11.102 -337742188#8 -337742188#8.6 -337742188#8.83 -337742188#8.106 -337742188#8.123 -337742188#8.140 -337742188#8.159 22917673#2 22917673#2.9 22917673#2.36 22917673#2.81 22917673#5 22917673#5.15 22917673#5.76 481291011#0 481291011#0.6 481291011#0.65 481291010#0 481291010#0.19 481291010#0.23 481291010#0.30 481291010#0.133 481291010#3 481291010#3.6 481291010#3.100 369455641#1 369455641#1.28 369455641#1.78 512126021#0 512126021#0.7 512126021#0.31 512126021#0.66 157167355#0"/>
</vehicle>
<vehicle id = "veh12" type= "veh_passenger" depart="10815" >
<route edges =" -813722269#3 -813722269#3.7 -813722269#3.48 -813722269#3.84 -813722269#3.86 620762213#0 620762213#0.9 620762213#0.88 57883609#0 57883609#0.6 57883609#0.57 57883609#3 57883609#3.43 57883609#3.52 57883609#3.60 57883609#3.80 179551719 179551719.37 179551719.46 179551719.51 179551719.88 179551719.93 179551719.97 65588093#0 65588093#0.3 65588093#0.6 65588093#0.9 65588093#0.30 65588093#2 65588093#3 -292812445#2 -292812445#2.48 -292812445#2.63 292812446#0 292812446#0.15 292812446#0.27 292812446#0.70 292812446#0.83 292812446#0.91 292812446#0.121 -6463027#1 -6463027#1.9 -6463027#1.45 -6463027#1.48 -6463027#1.50 -6463027#1.52 -6463027#1.54 -6463027#1.56 -6463027#1.58 -6463027#1.60 -6463027#1.62 -6463027#1.63 -6463027#1.65 -337668916#10 -6403874#0 -65588100#6 -65588100#6.7 -6430729#8 -6430729#8.48 -6430729#8.49 -6430729#5 -6430729#5.49 -6430729#5.89 813722270#5 813722270#5.7 813722270#5.118 6411908#0 -337668916#5 -337668916#5.44 -337668916#5.90 -337668916#3 -337668916#3.10 -337668916#3.49 -337668916#3.92 -6463013#2 -6463013#2.8 -6463013#2.38 -6463013#2.42 -6463013#2.60 -6463013#2.70 -6463013#2.90 -331930455#4 -331930455#4.14 -331930455#4.40 -331930455#4.51 -331930455#4.58 -331930455#4.91 -548654006#1 -548654006#1.9 -548654006#1.38 -548654006#1.47 -548654006#1.55 6358524#0 6358524#0.10 6358524#0.125 171739214#0 171739214#0.4 171739214#0.56 171739214#3 171739214#3.6 171739214#3.44 171739214#3.60 171739214#3.83 428098981 428098987#0 428098987#0.22 428098987#0.51 428098984#0 428098984#0.14 6464391#0 6464391#0.12 6464391#0.77 6464391#3 6464391#3.6 6464391#3.75 6464391#6 6464391#6.5 6464391#6.66 6374789#9 6374789#9.6 6414229#11 6358524#9 6358524#9.62 6358524#9.78 6358524#12 -8071894#1 -8071894#0 -6368518#5 -6368518#5.49 749754758#11 749754758#11.121 621088606#0 50329139 215404534#1 6348400#1 6348400#1.133 6348400#1.138 6348400#1.140 6428544#1 -6358515#2 -6358515#1 8071895#0 8071895#1 -462701467#1 -462701467#1.25 -8071894#4 -752851600#14 -752851600#14.33 -752851600#12 -752851600#12.41 6414229#13 6414229#13.35 6414229#13.70 896104580#0 896104580#0.9 158882517#0 6368665#3 6368665#3.5 158882511#1 158882511#1.35 6346524#3 6346524#3.79 6346524#3.88 6346524#3.93 6346524#3.98 6346524#3.103 6346524#3.111 6346524#3.116 6346524#3.121 8071379#0 8071379#0.46 -6411908#5 -6411908#5.12 -6411908#5.22 -6411908#5.31 -6411908#4 -158882517#2 -6346524#1 -158882505#2 -158882505#1 -158882505#1.37 -8071890#1 -8071890#1.42 171739214#9 171739214#10 171739214#11 171739214#12 171739214#13 171739214#14 171739214#15 171739214#15.31 171739214#15.57 6403883#1 158882505#7 6469837#2 158882517#6 158882517#6.46 158882517#6.66 158882517#6.67 158882517#6.69 158882517#6.71 158882517#6.73 6457203#8 6457203#8.18 6457203#8.28 6457203#8.74 6457203#8.81 6457203#8.98 6457203#13 6457203#13.62 6457203#14 6457203#14.21 6457203#15 6457203#15.68 975126260#0 975126260#0.49 -6505136#16 6368504#5 6368504#5.48 -603522174#0 603522173#0 603522173#0.48 603522173#2 603522173#2.51 -6381494#14 -6381494#14.47 -6381494#14.172 -6368504#11 -6368504#11.50 -6368504#11.52 -6513783#8 -170683231#20 -170683231#20.51 -6381494#11 -6381494#11.68 -6381494#11.95 -37657905#4 -37657905#4.54 -6513783#6 -8111709#5 -8111709#5.48 -6464042#7 -6464042#7.121 -6464042#7.127 -6464042#7.144 -6464042#7.161 -6464042#2 -6464042#2.80 -6464042#1 -6464042#1.52 292812445#5 292812445#5.45 6513783#0 962517344 962517344.33 -6381494#0 292812445#9 292812445#9.49 337739268 337739268.124 337739267#0 337818462 337818462.3 337818462.6 337739271#1 337739271#1.6 337739269#0 337739269#1 337739269#1.30 337739269#3 337739269#3.69 -396055523#4 -396055523#4.9 -396055523#4.15 -396055523#4.150 -92170540#0 -92170540#0.2 169730574#0 169730574#0.11 169730574#0.29 169730574#0.31 854082601 854082601.11 854082601.52 -6486416#2 -6486416#2.9 -6486416#2.116 -6360256#15 -6360256#15.7 -6360256#15.133 -6360256#13 -6360256#13.8 -6360256#13.10 -6360256#13.19 -6360256#13.61 -6360256#13.76 -6360256#13.125 -6360256#9 -6360256#9.6 243349944#13 243349944#13.47 243349944#13.51 22917113#6 243349945#6 243349945#6.48 243349945#6.88 185485132#11 185485132#11.115 185485132#12 185485132#12.17 6495801#0 -6463035#3 6448612#2 6448612#2.70 428315592#3 428315592#3.28 428315592#3.60 428315592#5 428315591#0 428315591#1 428315591#2 428315591#2.6 428315591#2.15 428315591#2.25 428315591#2.59 428315591#2.76 912599280 6488417#0 6488417#0.10 739678026 739678026.4 170683288#0 170683288#0.14 170683231#0 170683231#0.34 170683231#2 6495798#2 476409332#7 476409332#8 476409332#9 476409332#9.68 -6349126#4 -6349126#4.29 -6349126#4.47 -6349126#4.62 -6349126#4.68 -6349126#4.76 -6349126#4.79 -6349126#4.104 -854081622#0 -854081622#0.13 -19000995#2 -19000995#2.7 -19000995#2.29 6414237#0 6414237#0.11 6353867#2 6346315#0 6346315#0.6 6346315#0.13 6346315#0.28 6346315#0.35 6346315#0.40 6346315#0.46 -6353172#2 -6353172#2.5 6414237#2 6414237#2.7 6414237#2.43 6414237#2.81 -243352868#3 -243352868#3.6 -243352868#1 -243352868#1.19 170683665#13 -6369950#2 -6369950#2.24 -6463035#14 -6463035#13 -6463035#13.80 6353177#4 6353172#0 -40416130#2 -40416130#1 -6349133#2 -6349133#2.120 -6349133#1 -6349133#0 336908262#2 336908262#2.49 -160624558#4 -160624558#4.98 -160624558#2 -243349945#16 -243349945#16.50 -243349945#14 -243349945#14.50 -243349942#0 -243349942#0.28 -22760521#3 -22760521#2 -22760521#2.81 -22760521#2.121 428246847#0 428246847#0.8 428246847#0.22 6386110#0 6386110#0.16 6386110#0.25 6386110#0.55 -243349338#6 -243349338#6.14"/>
</vehicle>
<vehicle id = "veh13" type= "veh_passenger" depart="10815" >
<route edges =" -816616074#1 -816616074#1.10 -816616074#1.14 -816616074#1.119 428341734#4 428341734#4.8 428246439#0 428246439#0.14 428246438#0 428246438#0.8 428246440#0 428246440#0.62 800744529#0 800744529#0.7 800744529#0.52 800744529#0.89 825336588#0 825336588#0.7 96029553#0 96029553#0.9 96029553#0.15 96029553#0.59 -893866066#2 -893866066#2.7 -893866066#2.122 32135548#0 32135548#0.6 32135548#0.48 32135548#0.53 32135548#0.64 32135548#0.89 32135548#0.90 32135548#5 32135548#5.7 32135548#5.49 32135548#5.88 -6440371#11 -6440371#11.12 -6440371#11.144 293775902#8 293775902#8.6 293775902#8.49 293775902#8.91 -6512920#7 -6512920#7.4 -6512920#7.122 -6512920#7.124 6464138#12 6464138#12.51 6464138#14 -481291488#1 -481291488#0 -481291488#0.69 -481291488#0.82 243339793#0 243339793#0.48 243339793#2 243339793#2.49 243339793#4 243339793#5 -6360256#0 -6360256#0.8 486875123#0 486875123#0.56 486875123#0.88 481291012#0 481291012#0.24 481291012#0.32 185485132#2 185485132#2.104 185485132#3 185485132#3.10 185485132#4 185485132#5 185485132#5.98 256994205#2 256994205#2.24 256994205#2.72 -6494975#4 -6494975#4.53 243349338#5"/>
</vehicle>
<vehicle id = "veh14" type= "veh_passenger" depart="10815" >
<route edges =" 817434294 817434294.10 817434294.36 817434294.44 817434294.63 817434294.119 816616072#4 816616072#4.7 816616072#4.62 816616072#4.121 816616072#8 816616072#8.6 816616072#8.121 158882495#0 158882495#0.6 -813722270#7 -813722270#7.11 -813722270#7.122 6430729#3 6430729#3.9 6430729#3.48 6430729#6 6430729#6.47 6430729#6.48 6430729#9 6430729#9.48 6430729#11 6430729#11.51 -65588093#2 -6343949#9 -6343949#9.49 -6343949#7 -6343949#6 -620762212#2 -620762212#2.76 -620762212#2.120 -800744530#5 -800744530#5.9 -800744530#5.19 -800744530#5.73 -800744530#5.84 -800744530#5.118 -800744528#1 -800744528#1.8 -800744528#1.16 -800744528#1.37 -800744528#1.72 -337673339 -337673337 -337673338#1 -337673338#1.9 -395714916#1 -395714916#1.12 -568043367 -568043367.41 -568043367.79 -293775903#2 -293775903#2.10 -293775903#2.37 -293775903#2.89 -293775903#2.118 893866060#0 893866060#0.10 893866060#0.69 893866060#0.91 -243338979#20 -243338979#20.7 -243338979#20.121 -243338979#17 -243338979#17.7 -243338979#17.60 -243338979#17.109 -243338979#17.118 -243338979#17.120 -486864438#1 -486864438#1.11 -486864438#1.48 -486864438#1.60 -486864438#1.88 -436480241#1 -436480241#1.12 -436480245#3 -436480245#2 -436480245#2.30 -6494871#2 -6494871#2.9 -6494871#2.89 -243338979#6 -243338979#6.31 -243338979#6.61 -486844941#1 -486844941#1.10 -486844941#1.46 -486844941#1.58 -486844941#1.70 -486844941#1.89 -436480243#3 -436480243#3.10 -436480243#3.19 -436480243#3.38 -6435230#9 -6435230#8 -6435230#7 -6435230#7.4 -6435230#7.24 -6435230#7.64 -347094714#7 -347094714#7.12 -347094714#7.50 -347094714#7.93 -6343878#5 -6343878#5.9 -6343878#5.86 893868549#3 893868549#3.4 893868549#3.48 893868549#3.84 893868549#3.86 -6435230#4 -6435230#4.33 617435761#0 617435761#0.8 617435761#0.21 617435761#0.40 617435761#0.83 617435761#5 617435761#5.33 617435761#5.45 893868551#0 893868551#0.5 893868551#0.89 901477545#0 901477545#0.8 901477545#0.89 901477545#4 901477545#4.7 901477545#4.69 6440364#4 6440364#4.6 6440364#4.86 6440364#7 6440364#7.7 6440364#7.83 876005345#0 876005345#0.6 876005345#0.172 876005345#0.185 876005345#0.193 876005345#0.195 -353690160#5 -353690160#5.7 -353690160#5.91 -22917111#2 -22917111#2.10 -22917111#2.197 -876005346#2 -876005346#2.9 -876005346#2.90 -893868547#2 -893868547#2.8 -893868547#2.91 6476327#11 6476327#12 6476327#12.5 6476327#12.32 6476327#12.60 486844942#4 486844942#4.7 486844942#4.31 486844942#4.73 486844942#4.89 353690149#0 353690149#0.9 353690149#0.132 353690149#0.196 460419029#0 460419029#0.7 460419029#0.51 460419029#0.53 460419029#0.89 460419029#5 460419029#5.8 460419029#5.52 460419029#5.91 6440371#0 6440371#0.7 6440371#0.8 6440371#0.119 6440371#0.121 6440371#3 6440371#3.7 6440371#3.9 6440371#3.121 6440371#3.123 6440371#3.125 6464138#8 6464138#8.7 6464138#8.49 6464138#8.88 -6512920#5 -6512920#5.6 -6512920#5.9 -6512920#5.119 -6512920#5.124 -6512920#3 -6512920#3.8 -6512920#3.9 -6512920#3.19 -6512920#3.59 -6512920#3.92 486874837#0 486874837#1 -6447971#9 6425689#0 6425689#0.48 460419007#1 460419007#1.26 460419013#0 460419013#0.51 481291014#0 481291014#0.53 460419024#0 460419024#0.9 460419024#0.19 460419024#0.34 460419024#0.53 460419024#0.102 460419024#5 460419024#5.50 460419024#5.63 460419024#5.69 -621319697#3 -621319697#3.10 -621319697#3.29 -621319697#3.34 -621319697#3.38 -6380913#11 -6380913#11.53 -6463532#3 -6463532#3.45 -6463532#1 -6463532#1.50 -6447971#6 6467507#4 6467507#4.48 6467507#6 6467507#6.51 6467507#8 6467507#8.87 6516509#8 6516509#8.7 6516509#8.85 6516509#11 6516509#11.6 6516509#11.34 6516509#11.86 169917351#12 169917351#12.9 169917351#12.42 169917351#12.90 -6360239#3 -6360239#3.6 -6360239#3.69 -6360239#3.102 256996976#3 256996976#3.7 256996976#3.76 6449462#0 6449462#0.9 6449462#0.46 6415147#2 6415147#3 6415147#4 -428247193#2 -428247193#2.56 -428247193#2.61 -428247193#2.96 -428247193#2.117 -428247193#2.121 -428247193#2.140 -428247193#2.154 -428247195 -428247195.5 -460421481#2 -460421481#2.8 -460421481#2.32 6497081#6 6497081#6.44 6497081#8 6371720#3 157167355#0"/>
</vehicle>
<vehicle id = "veh15" type= "veh_passenger" depart="10815" >
<route edges =" -814326475#2 -814326475#2.9 -814326475#2.24 -814326475#2.41 -814326475#2.70 -814326475#2.91 -6456052#5 -6456052#5.10 -6456052#5.36 -6456052#5.120 -607690679#4 -607690679#4.9 -607690679#4.87 -607690679#4.94 -607690679#4.99 -797328240#3 -797328240#3.13 -797328240#3.26 -797328240#3.65 -797328240#3.93 -797328240#3.115 -337673342#5 -337673342#5.3 -337673342#5.9 -337673342#5.13 -337673342#5.21 -337673342#5.35 -337673342#5.72 -607691082#1 -607691082#0 -6475815#3 -6475815#3.2 -6475815#3.17 -6475815#3.46 -428089348#3 -428089348#3.15 -428089348#3.21 -428089348#3.28 -353690151#5 -353690151#5.11 -353690151#5.12 -353690151#5.26 -353690151#5.83 -353690151#5.102 -353690151#2 -353690151#2.9 -353690151#2.22 -353690151#2.24 -353690151#2.39 -353690151#2.72 -353690151#2.92 -433500388#1 -433500388#1.11 -433500388#1.46 -433500388#1.73 -433500388#1.113 -433500388#1.115 -428088900#1 -428088900#1.10 -428088894#1 -428088894#1.25 -428088883#1 -428088883#1.15 -428088897 -428088888 -737711647 -332223490#1 -332223490#1.19 6514305#0 6514305#0.3 6514305#0.4 6514305#0.9 6514305#0.14 6514305#0.34 6514305#0.54 353690159#1 353690159#1.50 353690159#1.92 353690159#4 353690159#4.6 353690159#4.49 353690159#4.69 353690159#4.76 353690159#4.85 436480242#0 436480242#0.10 436480242#0.37 436480242#0.48 436480245#1 436480245#1.33 436480245#3 436480241#0 436480241#0.39 179552385#0 179552385#0.11 179552385#0.40 179552385#0.52 179552385#0.88 486864438#2 486864438#2.6 486864438#2.88 -6476327#20 -6476327#20.8 -6476327#20.163 -6476327#20.182 -6476327#20.195 -6476327#15 -6476327#15.10 -6476327#15.38 -6476327#15.65 -6476327#11 -6476327#10 -6476327#10.8 -6476327#10.86 -893868549#11 -893868549#11.9 -893868549#11.68 -893868549#11.84 -893868549#11.99 -893868549#11.180 -893868549#11.184 -893868549#6 -893868549#6.12 -893868549#6.14 -893868549#6.50 -893868549#6.94 6343878#3 6343878#3.6 6343878#3.84 -347094714#3 -347094714#3.9 -347094714#3.49 -347094714#3.92 6467490#0 6467490#0.7 6467490#0.49 6467490#0.78 -401497115 -401497115.113 -401497115.170 -401497115.214 -428233435 -460425668 -460425668.5 -6457806#2 -6457806#2.21 -6457806#2.25 -6457806#2.30 6465162#0 6465162#0.2 6465162#0.6 6465162#0.11 6465162#0.36 428233434 428233434.31 428233434.58 332223487#0 332223487#0.16 332223487#0.62 332223487#0.98 332223488 332223488.25 332223488.48 332223488.65 332223488.68 332223488.88 347092907#0 347092907#0.3 347092907#0.13 347092907#0.19 347092907#0.26 347092907#0.31 347092907#0.38 347092907#0.40 347092907#0.45 347092907#0.51 332223494#0 332223494#0.18 332223494#0.35 332223494#0.144 332223494#0.171 6506833#15 6506833#15.8 6506833#15.10 6506833#15.35 6506833#18 6506833#18.45 6506833#20 6506833#20.8 6506833#20.47 6506833#20.85 -263712957#12 -263712957#12.8 -263712957#12.77 792010743#2 792010743#2.11 792010743#2.16 6371699#0 6371699#0.9 6371699#2 6371699#2.33 6371699#2.42 6371699#2.187 844067889#4 844067889#4.8 844067889#4.67 844067889#4.77 844067889#4.80 658263993#0 658263993#0.7 658263993#0.52 658263993#0.57 658263993#0.90 658263993#0.161 6491356#4 6491356#4.5 6491356#4.177 6491356#4.178 6496658#0 6496658#0.30 6496658#0.31 -260318962#3 -260318962#3.5 -260318962#1 -260318962#1.73 -6388742#24 -6388742#24.5 -6388742#24.72 -6388742#21 -6388742#21.6 -6388742#21.71 -8044210#1 -8044210#1.9 -8044210#1.90 -8044210#1.95 6445481#0 6445481#0.3 6445481#0.6 6445481#0.68 6445481#0.72 -6371699#12 -6371699#12.3 -6371699#12.7 -6371699#12.71 -6371699#12.94 -6371699#12.106 -6388742#15 -6388742#15.8 -6388742#15.46 -6388742#15.84 263712958#0 263712958#0.8 263712958#0.45 263712958#0.101 263712958#0.114 263712958#0.117 263712958#0.119 6445479#0 6445479#0.4 6445479#0.8 6445479#0.186 965874292#10 965874292#10.35 965874292#12 965874292#12.8 965874292#12.69 158123767#0 158123767#0.10 158123767#0.11 158123767#0.50 158123767#0.74 158123767#0.86 158123767#0.115 158123767#0.122 158123767#0.134 158123767#0.139 158123767#0.166 795669781 795669781.52 795669781.56 460421481#1 460421481#1.61 460421481#1.85 256997441#0 256997441#0.11 256997441#0.18 256997441#0.62 14374224#4 14374224#4.44 14374224#4.54 14374224#4.84 14374224#4.122 -6414318#4 -157167355#0"/>
</vehicle>
<vehicle id = "veh16" type= "veh_passenger" depart="14420" >
<route edges =" -813722269#3 -813722269#3.7 -813722269#3.48 -813722269#3.84 -813722269#3.86 620762213#0 620762213#0.9 620762213#0.88 620762212#0 620762212#0.8 620762212#0.52 620762212#3 620762212#4 620762212#4.122 171739207#2 171739207#2.46 6403874#0 -337668916#9 -337668916#9.50 160552467#1 160552467#1.43 160552467#1.66 160552467#1.99 160552467#1.104 160552467#1.111 160552467#6 160552467#6.15 160552467#6.20 160552467#6.50 -158882505#5 -158882505#5.47 6411908#3 6411908#4 -158882511#3 -6346524#2 -158882517#1 6368665#3 6368665#3.5 6368665#5 6368665#5.74 6368665#5.92 6368665#5.101 6368665#5.110 6368665#5.118 337099385#0 337099385#0.5 337099385#0.11 263668130#0 6346524#7 6428544#11 6428544#11.45 6428544#13 -6462093 -6462093.45 -6462093.54 -6462093.65 -6462093.80 -6462093.95 -6462093.117 -6462093.128 -6462093.141 -6462093.175 -6323849#1 -6323849#1.28 -6411908#6 8071379#2 8071379#2.41 160552467#11 160552467#11.10 160552467#11.22 160552467#11.49 160552467#11.58 160552467#11.67 160552467#11.76 160552467#11.83 160552467#11.93 160552467#11.104 160552467#11.114 160552467#11.125 6323849#3 6323849#3.9 6323849#3.21 6323849#3.30 6323849#3.53 6323849#3.67 -6403883#6 6345333 -6457203#14 -6457203#14.67 -6368504#2 -6368504#2.43 -6469837#4 -6469837#4.19 -6469837#3 -6469837#2 -158882505#7 -6403883#1 171739214#20 171739214#21 171739214#21.8 171739214#21.28 171739214#21.32 6457203#1 6457203#1.8 6457203#1.16 6457203#1.38 6457203#1.55 8111709#0 8111709#0.47 6505136#13 6505136#13.14 8111708#3 8111708#3.48 8111708#3.86 -603522174#3 -603522174#3.8 -8111707#3 -8111707#3.49 6505136#15 6505136#16 6505136#17 6505136#17.194 6505136#17.197 6339665#0 6339665#0.2 6339665#0.6 6339665#0.46 603522176#0 603522176#0.48 603522176#2 603522176#2.50 603522176#4 603522176#4.7 603522176#4.48 -638348588#0 263666867#3 263666867#3.49 642732922 476409331 791722143#0 791722143#0.9 791722143#1 -37657905#8 -37657905#8.49 336904472#3 336904472#3.37 336904472#5 336904472#5.77 -6368504#14 -6368504#14.46 -6368504#14.56 -6368504#11 -6368504#11.50 -6368504#11.52 -6513783#8 -6513783#7 -6513783#6 -6513783#5 -6513783#4 -6513783#4.21 -6513783#4.23 -6513783#4.43 -6513783#4.80 -6513783#1 -6513783#1.10 -6513783#0 -525497324#8 -6430729#16 -6430729#16.50 -6440348#13 -6440348#13.56 -6440348#13.66 -6440348#13.122 -6440348#13.124 6343949#12 6343949#12.47 -525497324#3 -525497324#2 243349944#4 243349944#4.53 243349944#6 243349944#7 243349944#8 243349944#9 -396055523#8 -396055523#8.8 243349945#0 243349945#0.6 243349945#0.83 243349945#3 243349945#3.5 243349945#3.45 243349945#3.49 -22917113#6 243349944#15 243349944#15.48 243349944#17 243349944#17.50 -6494975#7 -6494975#6 -6494975#6.81 256994205#3 428246847#0 428246847#0.8 428246847#0.22 6386110#0 6386110#0.16 6386110#0.25 6386110#0.55 -243349338#6 -243349338#6.14"/>
</vehicle>
<vehicle id = "veh17" type= "veh_passenger" depart="14420" >
<route edges =" -816616074#1 -816616074#1.10 -816616074#1.14 -816616074#1.119 428341734#4 428341734#4.8 428246439#0 428246439#0.14 428246438#0 428246438#0.8 428246440#0 428246440#0.62 800744529#0 800744529#0.7 800744529#0.52 800744529#0.89 -349901821 -6476313#2 -6476313#2.11 -6476313#2.29 -6476313#2.98 -6476313#2.99 -6476313#2.103 -6476313#2.107 164418944#4 164418944#4.7 164418944#4.8 164418944#4.29 164418944#4.51 164418944#4.95 -353690150#2 -353690150#2.8 -353690150#2.144 293775902#0 293775902#0.7 293775902#0.52 293775902#0.90 -22917111#19 -22917111#19.8 -22917111#19.123 -22917111#19.125 -22917111#19.126 6464138#4 6464138#4.6 6464138#4.51 6464138#4.88 6464138#8 6464138#8.7 6464138#8.49 6464138#8.88 6464138#12 6464138#12.51 -6481166#10 -6481166#10.6 -6481166#10.8 -6481166#10.120 353690154#15 353690154#15.50 243339793#0 243339793#0.48 243339793#2 243339793#2.49 801995081#0 6464126#5 460419028#4 243339793#5 6360256#1 6360256#1.7 6464126#7 6464126#7.50 22917113#2 243349338#2 243349338#3 243349338#3.49 243349338#5"/>
</vehicle>
<vehicle id = "veh18" type= "veh_passenger" depart="14420" >
<route edges =" 817434294 817434294.10 817434294.36 817434294.44 817434294.63 817434294.119 6343949#0 6343949#0.7 6343949#0.86 6343949#3 6343949#3.9 6343949#3.49 -620762212#2 -620762212#2.76 -620762212#2.120 -800744530#5 -800744530#5.9 -800744530#5.19 -800744530#5.73 -800744530#5.84 -800744530#5.118 -800744528#1 -800744528#1.8 -800744528#1.16 -800744528#1.37 -800744528#1.72 -337673339 -337673337 -337673338#1 -337673338#1.9 -395714916#1 -395714916#1.12 -568043367 -568043367.41 -568043367.79 -293775903#2 -293775903#2.10 -293775903#2.37 -293775903#2.89 -293775903#2.118 -475161306#1 -475161306#1.9 -475161306#1.92 -475161306#1.120 353690155#0 353690155#0.10 353690155#0.51 353690155#0.58 353690155#0.90 -243338979#17 -243338979#17.7 -243338979#17.60 -243338979#17.109 -243338979#17.118 -243338979#17.120 486864438#2 486864438#2.6 486864438#2.88 -6476327#20 -6476327#20.8 -6476327#20.163 -6476327#20.182 -6476327#20.195 -6476327#15 -6476327#15.10 -6476327#15.38 -6476327#15.65 -6476327#11 893868547#0 893868547#0.8 893868547#0.91 893868546#0 893868546#0.7 893868546#0.194 353690160#0 353690160#0.6 353690160#0.88 353690160#3 353690160#3.6 353690160#3.90 179552384#0 179552384#0.7 179552384#0.28 179552384#0.44 179552384#0.49 179552384#0.89 465971499#0 465971499#0.6 6481166#7 6481166#7.43 486874837#1 -6447971#9 -6447971#8 -6447971#7 -6447971#6 -6447971#5 -6447971#4 169917351#6 6515975#4 6515975#4.43 6515975#6 6467507#6 6467507#6.51 -6380913#5 6507809#7 6507809#7.46 6507809#7.87 6516509#11 6516509#11.6 6516509#11.34 6516509#11.86 169917351#12 169917351#12.9 169917351#12.42 169917351#12.90 169917351#16 169917351#16.9 169917351#16.77 169917351#19 169917351#19.6 169917351#19.71 169917351#22 169917351#22.7 169917351#22.72 6494970#3 6494970#3.7 6494970#5 6494970#5.205 6494970#7 481291012#5 481291012#5.49 6498476 6498476.121 6498476.127 6498476.134 -926425193#0 -926425193#0.24 -926425193#0.35 -926425193#0.76 -926425193#0.112 -428246846 -428246846.4 -428246846.17 -428246846.29 8071924#0 8071924#0.13 8071924#1 8071924#1.18 8071924#1.30 -6472293#5 -6472293#5.39 185485117#1 -6501822#4 -6501822#3 -185485127#9 -185485127#9.41 -185485127#9.47 -6472293#2 -6472293#1 -6472293#1.180 -6472293#1.202 6351349#0 6351349#0.4 6351349#0.39 6415147#7 6415147#8 620762211#1 620762211#1.10 620762211#1.36 620762211#1.73 620762211#1.115 620762211#1.170 620762211#1.178 6335280 6335280.16 6335280.119 6335280.125 -661086630#4 -661086630#4.5 -661086630#4.8 -661086630#4.25 -661086630#4.63 -6354836#4 -256997441#7 -256997441#7.46 -256997441#5 -256997441#5.36 -256997441#5.83 -14374224#3 -14374224#3.37 -14374224#3.41 -14374224#3.85 295783215#1 -6489809#2 -6489809#1 -6489809#1.47 -256996977#2 -256996977#2.16 -256996977#2.48 -460421482#10 -460421482#10.13 -460421482#10.46 -460421482#10.56 -460421482#10.76 6358721#0 6358721#0.9 -6415147#3 6497081#2 6497081#2.38 6497081#2.47 6497081#2.53 6497081#2.60 6497081#2.67 6497081#2.70 6497081#2.74 6497081#2.81 6497081#2.120 6497081#6 6497081#6.44 6497081#8 6497081#9 6497081#9.126 369455641#1 369455641#1.28 369455641#1.78 -512126023#7 -512126023#7.8 -512126023#7.19 -512126023#7.31 -512126023#7.44 -512126023#7.91 -512126023#7.107 -512126023#7.111 -512126023#7.245 6496652#0 6496652#0.8 6496652#2 6496652#2.75 6496652#4 6496652#4.7 6496652#6 -22917678#2 -22917678#2.8 -22917678#2.134 -6485999#2 -6351337#0 -661086629#2 -661086629#2.7 -6371720#6 -6371720#5 -6371720#5.41 157167355#0"/>
</vehicle>
<vehicle id = "veh19" type= "veh_passenger" depart="14420" >
<route edges =" -814326475#2 -814326475#2.9 -814326475#2.24 -814326475#2.41 -814326475#2.70 -814326475#2.91 -6456052#5 -6456052#5.10 -6456052#5.36 -6456052#5.120 -6456052#1 -6456052#1.10 -6456052#1.62 -607691082#1 -607691082#0 -6475815#3 -6475815#3.2 -6475815#3.17 -6475815#3.46 -428089348#3 -428089348#3.15 -428089348#3.21 -428089348#3.28 -428341218#2 -428341218#2.3 -428341218#2.9 -65588069#1 -65588069#1.13 -428089351#1 -428089351#1.16 -428089352#1 -428089352#1.12 -428089350 -428089350.17 -428089350.43 -428227812#1 -428227812#1.9 -428227851#1 -428227851#1.5 -13726934#1 -13726934#1.5 -428227808 -428227847#1 -428227847#1.17 -749622503#15 -749622503#15.9 -749622503#15.31 -749622503#15.46 -749622503#15.51 -749622503#15.67 -749622503#15.85 -749622503#8 -749622503#8.7 -749622503#8.63 -749622503#8.83 -749622503#4 -749622503#4.84 -749622503#2 -749622503#2.9 -749622503#2.29 -749622503#2.64 -749622503#2.84 532166310#0 532166310#0.43 532166310#0.52 -428088883#1 -428088883#1.15 -428088897 -428088888 -737711647 -332223490#1 -332223490#1.19 -465971498#3 -465971498#3.2 -465971498#3.3 -465971498#3.5 -465971498#3.7 -465971498#3.10 -465971498#3.34 -465971498#3.84 576974321#0 576974321#0.11 576974321#0.20 576974321#0.50 576974321#0.92 -6502980#7 -6502980#7.6 -6502980#7.48 -6502980#7.86 -6502980#3 -6502980#3.7 -6502980#3.69 -6502980#3.84 347094711#0 347094711#0.7 347094711#0.20 347094711#0.38 347094711#0.50 347094711#0.69 347094711#0.73 347094711#0.74 347094712#0 347094712#0.21 -332223489#3 -332223489#3.4 -332223489#3.15 -332223489#3.17 -332223489#3.21 -401497115 -401497115.113 -401497115.170 -401497115.214 -537677478#2 -537677478#2.10 -537677478#2.11 -537677478#2.28 -537677478#2.36 -6456046#3 -6456046#3.6 -6456046#3.36 -6456046#3.42 -6456046#3.49 -6456046#3.56 -6456046#3.62 -6456046#3.66 -6456046#3.71 -6456046#3.76 -6456046#3.92 -6456046#3.102 -6456046#3.109 -6456046#3.112 440890310 440890310.65 425646003#0 425646003#0.15 6476922#0 6476922#0.13 6476922#0.24 6476922#0.37 6476922#0.60 6476922#0.67 6413383#0 6413383#0.1 6413383#0.3 6413383#0.6 6413383#0.18 6413383#0.26 6413383#0.47 428233432#0 428233432#0.11 428233432#0.22 -739874554#2 -739874554#2.15 -739874554#2.40 -739874554#2.60 -739874554#2.67 622519661 622519661.8 739874553#0 739874553#0.66 739874553#0.80 739874553#0.88 333370569#0 333370569#0.6 333370569#0.13 333370569#0.37 333370569#0.43 333370569#0.66 333370569#0.94 333370569#0.155 333370569#0.178 333370566#0 333370566#0.32 332223494#0 332223494#0.18 332223494#0.35 332223494#0.144 332223494#0.171 -6506833#14 -6506833#14.9 -6506833#14.14 -6506833#14.43 -6506833#14.79 347092915#6 347092915#6.6 347092915#6.44 347092915#6.87 347092915#10 347092915#10.9 347092915#10.68 347092915#10.90 243338978#7 243338978#7.8 243338978#7.38 243338978#7.45 243338978#7.74 965874292#0 965874292#0.8 965874292#0.88 965874292#3 965874292#3.1 965874292#3.48 965874292#3.59 965874292#3.86 965874292#7 965874292#7.8 965874292#7.41 965874292#10 965874292#10.35 965874292#12 965874292#12.8 965874292#12.69 158123767#0 158123767#0.10 158123767#0.11 158123767#0.50 158123767#0.74 158123767#0.86 158123767#0.115 158123767#0.122 158123767#0.134 158123767#0.139 158123767#0.166 795669782#0 795669782#0.54 6414318#1 6414318#1.86 6414318#3 -157167355#0"/>
</vehicle>
<vehicle id = "veh20" type= "veh_passenger" depart="18025" >
<route edges =" -813722269#3 -813722269#3.7 -813722269#3.48 -813722269#3.84 -813722269#3.86 620762213#0 620762213#0.9 620762213#0.88 57883609#0 57883609#0.6 57883609#0.57 65588100#0 65588100#0.63 6343949#7 6343949#8 6343949#8.52 65588093#2 6430729#13 6430729#13.48 6440348#14 6464042#0 6464042#0.76 6463017#2 6463017#2.44 6463017#2.48 6463017#5 6463017#6 6463017#6.48 -6386837#0 337739268 337739268.124 337739267#0 337739267#1 337739271#0 337739271#0.10 337739271#0.13 337739271#1 337739271#1.6 337739269#0 337739269#1 337739269#1.30 481291013#0 481291013#0.16 481291013#0.30 481291013#0.70 481291013#0.75 481291013#0.79 481291013#0.109 481291013#0.113 737709039#0 737709039#0.8 737709039#0.14 737709039#2 737709039#2.53 737709039#2.59 537678339#0 537678339#0.28 -460399791#2 -460399791#2.15 -460399791#2.17 -460399791#2.82 -460399791#2.105 6460085#0 6460085#0.9 6460085#0.43 6460085#0.101 6460085#2 6460085#2.86 6464374 65588097#4 65588097#4.20 65588097#6 476409332#5 476409332#6 6495798#3 6495798#4 -6523125#1 65588097#10 65588097#10.40 6522860#1 6448615#0 6448615#0.41 -6459736#1 -6459736#1.49 -394736758#7 -394736758#7.6 -394736758#7.14 -394736758#7.26 -394736758#7.93 6428555#0 6428555#0.17 6428555#0.32 6428555#0.51 6448615#7 -6489854#1 -6489854#1.49 -394736758#5 -394736758#4 -394736758#4.104 -394736758#1 -394736758#1.15 -394736758#1.42 -394736763 -6448615#9 6483146#3 6483146#3.48 159937059#2 159937059#3 159937059#3.69 159937059#3.76 6428558#0 6428558#0.9 6428558#0.56 6428558#0.147 6428558#0.154 6428558#0.157 -170683288#8 -170683288#8.6 -170683288#8.15 -6459736#10 -6459736#10.20 -6459736#10.53 -6459736#10.60 -6495798#8 -6495798#8.42 6522860#11 6522860#11.100 6522860#11.110 6522860#14 6522860#14.12 6522860#14.34 6522860#14.81 6522860#14.110 6522860#14.119 -6523125#6 -6523125#6.31 -6523125#6.52 -6523125#6.66 -170683288#5 -170683288#5.41 -170683288#3 -170683288#3.39 -170683288#3.69 -170683288#3.76 -170683288#1 -170683288#1.6 -170683288#1.13 170683231#0 170683231#0.34 -6356667#1 -6356667#1.147 -6356667#1.181 -428315591#1 -6356671#2 -6356671#2.8 -6356671#2.34 -6356676#2 -6356676#2.14 -6356676#2.25 -6356676#2.40 -170683665#2 -170683665#2.49 -170683665#2.51 -170683665#2.95 -6495801#1 6463035#4 6463035#4.46 6463035#4.48 6463035#7 6463035#8 6463035#8.49 -6349133#0 -6472289#4 -805658294#5 -805658294#5.50 243349942#2 -805680044#10 -6494975#10 -6494975#10.123 -6494975#10.131 -805658294#1 -805658294#1.44 -805658294#1.57 185485132#12 185485132#12.17 -805680044#7 -805680044#7.48 -805680044#7.91 -805680044#4 -805680044#4.8 -805680044#4.49 -805680044#4.92 -805680044#0 -805680044#0.6 -805680044#0.45 -805680044#0.95 396055523#1 396055523#1.42 396055523#1.177 396055523#1.183 396055523#5 396055523#5.8 396055523#5.42 396055523#7 396055523#7.122 396055523#9 396055523#9.6 396055523#9.20 396055523#9.54 6447445#0 6447445#0.8 6447445#0.87 6447445#3 6447445#3.51 6447445#5 6447445#5.47 185485132#9 185485132#10 243349945#9 243349945#9.50 -6494975#8 243349944#19 243349944#19.47 243349942#0 243349942#0.100 243349945#13 243349945#13.48 243349945#15 243349945#15.47 -160624558#1 243349944#25 359671039#6 243349945#18 243349945#19 243349945#20 263665040#3 263665040#3.26 263665040#3.104 263665040#3.115 808266757#2 808266757#2.40 808266757#4 808266757#4.120 808266757#6 -6468802#5 -6468802#5.9 -6468802#5.16 -6468802#5.24 -6468802#5.31 6343958#1 -337698847#1 -379811772#3 -379811772#3.95 -379811772#3.97 -379811772#3.160 -379811772#3.180 -379811772#3.212 -379811772#3.234 -379811772#3.256 -379811772#3.281 -379811772#3.302 -379811772#3.325 -379811772#1 -379811772#1.6 -379811772#1.14 -379811772#1.47 -379811772#1.73 -379811772#0 -379811772#0.8 -379811772#0.35 -379811772#0.45 -379811772#0.55 -379811772#0.63 -379811772#0.70 -379811772#0.80 -379811772#0.98 -379811772#0.110 -6501432#1 -6501432#1.10 -6501432#1.21 -6501432#1.48 -6501432#1.70 -6383496 -6383496.12 -6383496.21 -6383496.31 -6383496.40 -6383496.44 -6383496.49 -336908259#3 -336908259#3.6 -336908259#3.12 -336908259#3.16 -336908259#3.20 -336908259#3.44 -336908259#3.49 -336908259#3.63 -336908259#3.77 -336908259#3.86 -336908259#3.96 -336908259#3.104 -392882055 6508895 6508895.12 6508895.32 6508895.55 6508895.67 6508895.80 336908257#2 336908257#2.21 336908257#2.36 336908257#2.44 336908257#2.50 336908257#2.59 336908257#2.67 336908257#2.75 336908257#2.87 336908257#2.91 336908257#2.96 336908257#2.111 336908257#2.131 336908257#2.134 336908257#2.139 336908257#2.145 336908257#2.152 6466953#0 6466953#0.40 6468802#1 6468802#1.61 6468802#2 6468802#2.5 6468802#2.11 6468802#2.21 -6447445#27 -6447445#27.41 -6447445#27.75 -6447445#25 -6447445#25.7 -6447445#25.41 6409640#11 -243349944#31 -243349944#31.42 -243349941#10 -243349941#10.85 -6447445#20 -6447445#20.21 -6447445#20.41 -6447445#17 -352434874#0 -263665039 -263665039.32 -263665039.58 -263665039.72 -438895608#1 359671039#4 359671039#4.117 -6447445#14 -6447445#13 -6447445#13.40 -6447445#11 -22760521#2 -22760521#2.81 -22760521#2.121 428246847#0 428246847#0.8 428246847#0.22 6386110#0 6386110#0.16 6386110#0.25 6386110#0.55 -243349338#6 -243349338#6.14"/>
</vehicle>
<vehicle id = "veh21" type= "veh_passenger" depart="18025" >
<route edges =" -816616074#1 -816616074#1.10 -816616074#1.14 -816616074#1.119 428341734#4 428341734#4.8 428246439#0 428246439#0.14 428246438#0 428246438#0.8 428246440#0 428246440#0.62 -800744528#1 -800744528#1.8 -800744528#1.16 -800744528#1.37 -800744528#1.72 826314456#0 826314456#0.9 826314456#0.50 826314456#0.96 826314456#0.103 349901822#0 349901822#0.9 349901822#2 349901822#2.21 332092195#0 332092195#0.9 332092195#0.74 -22917111#30 -22917111#30.9 -22917111#30.50 -22917111#30.96 -22917111#26 -22917111#26.7 -22917111#26.41 -22917111#26.121 32135548#5 32135548#5.7 32135548#5.49 32135548#5.88 32135548#9 32135548#9.7 32135548#9.47 32135548#9.63 32135548#9.78 525497323#0 525497323#0.50 525497323#2 525497323#2.81 40416132#0 40416132#0.19 40416132#1 40416132#1.90 -801995081#2 -801995081#2.109 -801995081#0 243339793#4 243339793#5 -6360256#0 -6360256#0.8 486875123#0 486875123#0.56 486875123#0.88 -185485118#1 6514312#0 6514312#0.70 185485132#0 185485132#0.7 481291012#2 481291012#2.49 -6494970#7 -6494970#6 -6494970#6.6 185485127#2 185485127#2.70 185485127#4 185485127#4.10 -6391682#2 -6391682#2.31 -6391682#2.42 -6391682#2.52 -6391682#2.64 -6391682#1 -6391682#1.146 256996977#4 256996977#4.22 256996977#4.24 256996977#4.38 256996977#6 256996977#6.43 256996977#6.78 6354836#0 6354836#0.6 6415147#8 -620762211#0 -620762211#0.9 -620762211#0.78 -620762211#0.82 6396314 6396314.4 6396312#0 185485127#11 6449970#2 6449970#3 6449970#4 6449970#5 6425683#0 6425683#1 6425683#2 6425683#2.41 243349941#2 -32143377#1 -32143377#1.40 -259277920#2 -259277920#2.56 6506505#4 6336174#5 6336174#6 243349941#4 -6464130#6 -6464130#5 6506505#6 6506505#6.83 -243349338#12 -243349338#12.2 -6449970#11 -6464130#3 -6464130#3.41 359671039#2 -243349338#9 -243349338#8 -795671505#2 -6464126#16 -6464126#16.47 6386110#4 6386110#4.26 -243339793#14 -243339793#14.51 6494975#1 6494975#1.9 6494975#2 243349338#5"/>
</vehicle>
<vehicle id = "veh22" type= "veh_passenger" depart="18025" >
<route edges =" 817434294 817434294.10 817434294.36 817434294.44 817434294.63 817434294.119 816616072#4 816616072#4.7 816616072#4.62 816616072#4.121 6430729#0 6430729#0.7 6430729#0.86 -813722270#4 -813722270#4.8 -813722270#4.54 -813722270#4.55 -813722270#4.87 -813722270#4.122 -816616073#1 -816616073#1.7 -569505974#1 -569505974#1.6 -569505974#1.33 -569505976#2 -569505976#2.9 -569505976#2.88 -569505976#2.115 -569505976#2.119 -569505978#1 -569505978#1.10 -569505979 -569505979.32 -569505979.79 337673338#0 337673338#0.14 185882764 185882764.13 185882764.14 185882765 185882765.16 185882765.26 185882765.30 185882765.31 395933841 164418944#0 164418944#0.13 164418944#0.18 164418944#0.32 164418944#0.39 -353690148#9 -353690148#9.7 -353690148#9.10 -353690148#9.12 -353690148#9.13 -353690148#9.38 -353690148#9.143 893866065#7 893866065#7.7 893866065#7.48 893866065#7.90 -893866064#2 -893866064#2.7 -893866064#2.122 -893866059#2 -893866059#2.7 -893866059#2.120 -893866059#2.121 353690154#0 353690154#0.7 353690154#0.49 353690154#0.90 -22917111#13 -22917111#13.8 -22917111#13.10 -22917111#13.79 -22917111#13.80 -22917111#13.98 -22917111#13.123 460419029#5 460419029#5.8 460419029#5.52 460419029#5.91 460419029#9 460419029#9.7 460419029#9.45 -901419468#4 -901419468#4.51 -901419468#4.132 -901419468#4.164 -901419468#4.186 -901419468#4.196 -901419468#4.197 465971499#0 465971499#0.6 263669069#0 263669069#1 263669069#1.41 263669069#1.48 263669069#1.70 -6515975#8 6463532#2 6463532#2.50 -6380913#7 -6380913#7.22 6467507#8 6467507#8.87 6516509#8 6516509#8.7 6516509#8.85 6507809#10 6507809#10.8 6507809#10.91 6507809#13 6507809#13.9 6507809#13.77 6452520#6 6452520#6.7 185485127#0 -6523501#4 -6523501#4.175 -6523501#2 -6523501#2.5 -6523501#2.101 6497081#0 6497081#0.8 -6415147#2 6449462#3 6449462#3.7 6449462#3.50 6449462#3.60 6449462#3.72 6449462#3.87 795669782#0 795669782#0.54 795669782#2 6371720#2 6371720#3 157167355#0"/>
</vehicle>
<vehicle id = "veh23" type= "veh_passenger" depart="18025" >
<route edges =" -814326475#2 -814326475#2.9 -814326475#2.24 -814326475#2.41 -814326475#2.70 -814326475#2.91 -723013181#2 -723013181#2.9 -723013181#2.18 -723013181#2.38 -723013181#0 -332601014#3 -332601014#3.31 -332601014#3.36 -332601014#3.42 -428246441#2 -428246441#2.2 -428246441#2.10 -723013876#1 -723013876#1.12 -723013876#1.18 -723013877 -6415868#5 -6415868#4 -6415868#4.9 6349123#7 6349123#8 6430733#5 6430733#5.62 6461453#17 6461453#17.40 6461453#17.73 6461453#17.80 -6474762#2 -6474762#2.6 -6474762#2.9 -6474762#2.12 -6474762#1 -6474762#1.50 -393047811 621088608#0 621088608#0.43 621088608#0.48 6521205#0 6521205#0.2 6521205#0.12 6521205#0.21 6521205#0.31 6521205#0.34 6521205#0.47 6521205#0.59 6521205#0.69 6521205#0.81 6521205#0.92 749754754#0 749754754#0.11 6374789#3 6374789#3.12 6374789#3.121 6374789#6 6374789#6.4 6374789#6.119 6374789#9 6374789#9.6 -6414229#10 -6414229#10.49 -6414229#10.92 -749754758#7 -749754758#7.3 -749754758#7.122 6464391#13 6464391#13.8 6464391#13.49 6464391#13.91 6366765#10 6366765#10.4 6366765#10.120 6366765#13 6366765#13.8 6366765#13.39 6366765#13.63 6366765#13.90 6366765#13.109 6463008#0 6463008#0.5 6463008#0.10 6463008#0.85 6463008#0.87 6463008#0.90 -6479778#2 -6349048#2 -6349048#2.8 -6349048#2.90 6366765#21 6366765#21.3 6366765#21.24 6366765#21.30 6366765#21.34 6366765#21.38 6366765#21.40 6366765#21.42 6366765#21.43 6366765#21.72 460423542#0 460423542#0.9 460423542#2 460423542#2.42 460423542#2.44 460421473#0 460421473#0.10 460421473#0.15 460421473#0.16 6430733#1 -6511393#8 -6511393#7 -6415868#1 -6415868#1.48 -460423541#1 -460423541#1.113 -568586003 -568586003.29 -568586003.32 -568586003.36 -568586003.39 -568586003.43 -568586003.46 -568586003.50 -568586003.65 -749622503#35 -749622503#35.9 -749622503#35.13 -749622503#35.52 -749622503#35.58 -749622503#35.118 -749622503#35.124 -749622503#30 -749622503#30.5 -749622503#30.9 -749622503#30.79 -749622503#30.85 -749622503#30.120 -749622503#25 -749622503#25.7 -749622503#25.85 -759056694#10 -759056694#10.10 -759056694#10.50 -759056694#10.73 -759056694#10.89 -759056694#6 -759056694#6.7 -759056694#6.25 -759056694#6.49 -759056694#6.89 -759056694#2 -759056694#2.7 -759056694#2.25 -759056694#2.48 -738637224 -738637224.5 -738637224.9 -738637224.14 -738637224.23 -738637224.30 -165042063#1 -165042063#1.3 -165042063#1.13 -165042063#1.15 -759056491 -759056491.4 -759056491.8 -759056491.13 -759056491.17 -759056491.21 -759056491.26 -759056491.41 -759056491.81 -759056491.83 -759056491.88 -337673342#5 -337673342#5.3 -337673342#5.9 -337673342#5.13 -337673342#5.21 -337673342#5.35 -337673342#5.72 -607691082#1 -607691082#0 -6475815#3 -6475815#3.2 -6475815#3.17 -6475815#3.46 -428089348#3 -428089348#3.15 -428089348#3.21 -428089348#3.28 -353690151#5 -353690151#5.11 -353690151#5.12 -353690151#5.26 -353690151#5.83 -353690151#5.102 -293753571#3 -293753571#3.3 -293753571#3.7 -293753571#3.21 -369877031#7 -369877031#7.10 -369877031#7.98 -369877031#7.191 -749622503#8 -749622503#8.7 -749622503#8.63 -749622503#8.83 -749622503#4 -749622503#4.84 -749622503#2 -749622503#2.9 -749622503#2.29 -749622503#2.64 -749622503#2.84 -6522514#4 -6522514#4.7 -6522514#4.36 -6522514#4.61 -6522514#4.66 -6522514#4.67 -6522514#4.73 -332223490#1 -332223490#1.19 -428088887#1 -428088887#1.12 -428088892 -428088886#1 -428088886#1.24 -428088886#1.35 -428088886#1.45 6463530#0 6463530#0.2 6463530#0.8 6463530#0.13 6463530#0.54 6463530#0.95 -6456044#5 -6456044#5.7 -6456044#5.86 6467490#0 6467490#0.7 6467490#0.49 6467490#0.78 -401497115 -401497115.113 -401497115.170 -401497115.214 -428233435 -460425668 -460425668.5 425646007#0 425646007#0.10 425646007#0.17 425646007#0.20 425646007#0.22 425646007#0.27 -724644768 -724644768.35 6402586#0 6402586#0.1 6402586#0.4 6402586#0.6 6402586#0.12 6402586#0.35 6402586#0.59 6402586#4 6402586#4.72 6402586#4.75 6402586#4.77 6402586#4.80 208021560#0 208021560#0.2 208021560#0.5 208021560#0.8 208021560#0.11 208021560#0.30 208021560#0.39 208021560#0.44 208021560#0.106 208021560#0.125 208021560#0.133 208021560#0.136 347092914#0 347092914#0.10 347092914#0.14 347092914#0.24 347092914#0.54 347092914#0.75 347092914#0.87 893872038 893872038.9 893872038.14 893872038.97 893872038.123 893872038.129 893872038.134 6405076#3 6405076#3.4 6405076#3.8 6405076#3.14 6405076#3.20 6405076#3.50 6405076#3.68 6405076#3.84 22917663#0 22917663#0.5 22917663#0.8 22917663#0.11 22917663#0.26 22917663#0.59 22917663#0.67 22917663#0.85 -6458014#2 -6458014#2.7 -6458014#2.83 256996974#0 256996974#0.8 256996974#0.88 256996974#3 256996974#3.6 256996974#3.29 256996974#3.56 256996974#3.86 6440364#0 6440364#0.8 6440364#0.26 6440364#0.98 6440364#0.103 901477545#7 901477545#7.5 901477545#7.83 169917351#0 169917351#0.8 169917351#0.53 169917351#0.88 -6481166#3 -6481166#3.7 -6481166#3.37 -6481166#3.105 256996972 256996972.16 256996972.70 881403606#0 881403606#0.12 881403606#0.42 881403606#0.83 881403606#0.85 881403606#4 881403606#4.53 881403608#2 881403608#2.2 881403608#2.5 881403608#2.8 881403608#2.11 881403608#3 881403608#3.2 881403608#3.5 881403608#3.8 881403608#3.11 976099002#0 976099002#0.34 976099002#0.40 976099002#0.64 965874292#7 965874292#7.8 965874292#7.41 965874292#10 965874292#10.35 965874292#12 965874292#12.8 965874292#12.69 158123767#0 158123767#0.10 158123767#0.11 158123767#0.50 158123767#0.74 158123767#0.86 158123767#0.115 158123767#0.122 158123767#0.134 158123767#0.139 158123767#0.166 795669781 795669781.52 795669781.56 6497081#6 6497081#6.44 6414318#3 -157167355#0"/>
</vehicle>
<vehicle id = "veh24" type= "veh_passenger" depart="21630" >
<route edges =" -813722269#3 -813722269#3.7 -813722269#3.48 -813722269#3.84 -813722269#3.86 620762213#0 620762213#0.9 620762213#0.88 57883609#0 57883609#0.6 57883609#0.57 57883609#3 57883609#3.43 57883609#3.52 57883609#3.60 57883609#3.80 -8071898#3 6343949#8 6343949#8.52 6343949#10 6343949#10.49 -6440348#10 -6440348#10.4 -6440348#10.6 -6440348#10.48 -6440348#10.83 620762218#3 620762218#3.7 -525497324#2 243349944#4 243349944#4.53 66558981#3 66558981#3.38 66558981#3.55 66558981#3.77 66558981#3.95 343521145#0 343521145#0.47 343521145#0.69 337739267#0 337739267#1 -481291488#10 -481291488#10.44 -481291488#10.61 -481291488#10.85 -481291488#10.132 -481291488#10.142 243349944#7 243349944#8 243349944#9 243349944#10 243349944#10.7 243349944#10.84 243349944#13 243349944#13.47 243349944#13.51 -22917113#5 -22917113#4 256994205#1 256994205#2 256994205#2.24 256994205#2.72 256994205#3 428246847#0 428246847#0.8 428246847#0.22 6386110#0 6386110#0.16 6386110#0.25 6386110#0.55 -243349338#6 -243349338#6.14"/>
</vehicle>
<vehicle id = "veh25" type= "veh_passenger" depart="21630" >
<route edges =" -816616074#1 -816616074#1.10 -816616074#1.14 -816616074#1.119 428341734#4 428341734#4.8 428246439#0 428246439#0.14 428246438#0 428246438#0.8 428246440#0 428246440#0.62 800744529#0 800744529#0.7 800744529#0.52 800744529#0.89 825336588#0 825336588#0.7 96029553#0 96029553#0.9 96029553#0.15 96029553#0.59 -893866066#2 -893866066#2.7 -893866066#2.122 32135548#0 32135548#0.6 32135548#0.48 32135548#0.53 32135548#0.64 32135548#0.89 32135548#0.90 -22917111#22 -22917111#22.9 -22917111#22.144 293775902#4 293775902#4.6 293775902#4.49 293775902#4.88 -6440371#8 -6440371#8.7 -6440371#8.122 -6440371#8.124 -6440371#8.125 6464138#8 6464138#8.7 6464138#8.49 6464138#8.88 6512920#6 6512920#6.5 6512920#6.7 6512920#6.126 293775902#12 293775902#12.3 293775902#12.50 -6481166#11 -6481166#11.122 -6481166#11.125 6464138#14 -481291488#1 6464126#0 6464126#0.46 6464126#0.49 6464126#3 6464126#3.49 6464126#5 -460419028#3 243349338#0 243349338#0.18 243349338#1 243349338#2 -185485132#4 -185485132#3 -185485132#3.101 243339793#11 243339793#11.47 6494975#1 6494975#1.9 6494975#2 243349338#5"/>
</vehicle>
<vehicle id = "veh26" type= "veh_passenger" depart="21630" >
<route edges =" 817434294 817434294.10 817434294.36 817434294.44 817434294.63 817434294.119 6343949#0 6343949#0.7 6343949#0.86 -816616073#1 -816616073#1.7 -569505974#1 -569505974#1.6 -569505974#1.33 -569505976#2 -569505976#2.9 -569505976#2.88 -569505976#2.115 -569505976#2.119 -569505978#1 -569505978#1.10 -569505979 -569505979.32 -569505979.79 337673338#0 337673338#0.14 185882764 185882764.13 185882764.14 185882765 185882765.16 185882765.26 185882765.30 185882765.31 -243338979#28 -243338979#28.13 -243338979#28.49 -243338979#28.142 -243338979#28.143 893866065#3 893866065#3.6 893866065#3.48 893866065#3.88 -353690148#6 -353690148#6.8 -353690148#6.122 893866060#8 893866060#8.7 893866060#8.65 893866060#8.89 6464138#0 6464138#0.7 6464138#0.53 6464138#0.92 -22917111#16 -22917111#16.4 -22917111#16.5 -22917111#16.7 -22917111#16.120 -22917111#16.122 353690154#4 353690154#4.6 353690154#4.49 353690154#4.54 353690154#4.87 353690154#8 353690154#8.7 353690154#8.42 353690154#8.50 353690154#8.92 -6512920#3 -6512920#3.8 -6512920#3.9 -6512920#3.19 -6512920#3.59 -6512920#3.92 486874837#0 -6481166#8 -6481166#8.162 -6481166#6 6467507#3 -6447971#5 -6447971#4 -6447971#3 -6447971#3.29 -6447971#3.37 -6447971#3.61 256996978#0 256996978#0.7 256996978#0.68 6515975#0 6515975#0.8 6515975#0.67 6515975#0.104 6515975#4 6515975#4.43 6507809#5 6507809#5.51 -6380913#4 -6380913#3 -6380913#3.7 -6380913#3.66 -6380913#3.103 256996975#0 256996975#0.50 256996975#0.62 256996975#0.65 256996975#0.91 256996976#0 256996976#0.11 256996976#0.20 256996976#0.46 256996976#0.79 256996976#3 256996976#3.7 256996976#3.76 460421482#0 460421482#0.8 460421482#0.73 460421482#3 460421482#3.8 460421482#3.48 460421482#3.55 460421482#3.72 6358721#0 6358721#0.9 6415147#4 -428247193#2 -428247193#2.56 -428247193#2.61 -428247193#2.96 -428247193#2.117 -428247193#2.121 -428247193#2.140 -428247193#2.154 -428247195 -428247195.5 -428247194#1 -428247194#1.9 -428247194#1.28 -157167355#3 -157167355#3.5 -157167355#3.43 -6414318#3 -6414318#2 -6414318#2.8 -6414318#0 -6414318#0.76 -6414318#0.81 460418987#0 460418987#0.4 460418987#0.8 460418987#1 460418987#2 -6371704#2 -6371704#2.42 -460418992#2 -460418992#2.50 -460418992#2.92 -337742188#11 -337742188#11.8 -337742188#11.28 -337742188#11.102 -22917670#2 -22917670#2.8 -22917670#2.40 -22917670#2.64 -22917670#2.71 6385335#0 6385335#0.11 6385335#0.13 6385335#0.159 6385335#3 6385335#3.59 6385335#3.109 6385335#3.125 976099001#0 976099001#0.11 976099001#0.44 6430364#0 6430364#0.9 6430364#0.41 6430364#0.82 -22917667#6 -22917667#6.7 -22917667#6.62 22917673#5 22917673#5.15 22917673#5.76 -795846818#7 -795846818#7.6 -795846818#7.174 22917670#10 22917670#10.5 22917670#10.34 481291010#3 481291010#3.6 481291010#3.100 -6497081#10 -6497081#10.7 6371720#3 157167355#0"/>
</vehicle>
<vehicle id = "veh27" type= "veh_passenger" depart="21630" >
<route edges =" -814326475#2 -814326475#2.9 -814326475#2.24 -814326475#2.41 -814326475#2.70 -814326475#2.91 -6456052#5 -6456052#5.10 -6456052#5.36 -6456052#5.120 -6456052#1 -6456052#1.10 -6456052#1.62 -337673342#0 6343890#0 6343890#0.54 6343890#0.56 6343890#0.58 6343890#0.59 6343890#0.61 -6475815#6 -6475815#6.16 -6475815#4 -6475815#3 -6475815#3.2 -6475815#3.17 -6475815#3.46 -428089348#3 -428089348#3.15 -428089348#3.21 -428089348#3.28 332223491#0 332223491#0.12 6438604#0 6438604#0.3 6438604#0.6 6438604#0.8 6438604#0.10 6438604#0.11 6438604#0.13 6438604#0.44 6438604#0.60 -22927969#14 -22927969#14.8 -22927969#14.47 -22927969#14.89 -22927969#10 -22927969#10.10 -22927969#10.51 -22927969#10.91 -22927969#6 -22927969#6.8 -22927969#6.48 -22927969#6.90 -749622503#18 -749622503#18.7 -749622503#18.55 -749622503#18.81 -428227803#1 -428227803#1.9 -428227860 -428227860.14 -428227828 -428227842 -428227822#1 -428227822#1.17 -428227833#1 -428227833#1.13 -428227838 -428227854#1 -428227854#1.5 -428227818 -428227865#1 -428227865#1.18 338073583#14 338073583#14.11 338073583#14.23 338073583#14.40 338073583#14.60 338073583#14.86 -80574890#3 -80574890#3.8 -80574890#3.48 -80574890#3.78 -80574890#3.88 -621283347#4 -621283347#4.8 -621283347#4.61 -621283347#4.75 -621283347#4.82 -428227877#1 -428227877#1.10 -428227882#1 -428227882#1.23 -428227887#1 -428227887#1.18 -8111067#14 -8111067#14.9 -8111067#14.17 -8111067#14.35 -8111067#14.57 -8111067#14.84 -8111067#8 -8111067#8.8 -8111067#8.39 -8111067#8.57 -8111067#8.85 6394322#4 6394322#4.4 6394322#4.52 6394322#4.86 6394322#4.89 -169511255#7 -169511255#7.7 -169511255#7.26 -169511255#7.83 -169511255#3 -169511255#3.9 -169511255#3.45 -169511255#3.82 -460419023#2 -460419023#2.9 -460419023#2.70 -460419023#2.81 -484438422#1 -484438422#1.9 -484438422#1.20 -484438422#1.48 -484438422#1.49 -484438422#1.89 6502980#8 6502980#8.9 6502980#8.36 6502980#8.43 6502980#8.55 6502980#8.56 6502980#8.71 6502980#8.82 338073583#0 338073583#0.9 338073583#0.24 338073583#0.78 338073583#0.88 338073583#4 338073583#4.8 338073583#4.15 338073583#4.79 338073583#4.84 338073583#7 338073583#7.8 338073583#7.14 338073583#7.85 263672156#3 263672156#3.7 263672156#3.57 263672156#3.86 369877031#0 369877031#0.10 369877031#0.31 369877031#0.46 369877031#0.88 -749622503#8 -749622503#8.7 -749622503#8.63 -749622503#8.83 -749622503#4 -749622503#4.84 369877024#3 369877024#3.6 369877024#3.87 369877024#3.91 369877024#3.98 369877024#3.100 369877024#3.103 369877024#3.104 -428088900#1 -428088900#1.10 -428088894#1 -428088894#1.25 -532166310#2 -532166310#2.3 -532166310#2.13 -369877039 -369877039.36 -369877039.55 -428088903#1 -428088903#1.15 428231018#0 428231018#0.12 428231018#0.30 465971497#0 465971497#0.10 465971497#0.34 369877037#0 369877037#0.9 369877037#0.83 537686684#0 537686684#0.43 537686684#0.53 -332223489#3 -332223489#3.4 -332223489#3.15 -332223489#3.17 -332223489#3.21 -401497115 -401497115.113 -401497115.170 -401497115.214 -428233435 -460425668 -460425668.5 -6457806#2 -6457806#2.21 -6457806#2.25 -6457806#2.30 6465162#0 6465162#0.2 6465162#0.6 6465162#0.11 6465162#0.36 428233434 428233434.31 428233434.58 332223487#0 332223487#0.16 332223487#0.62 332223487#0.98 332223488 332223488.25 332223488.48 332223488.65 332223488.68 332223488.88 347092907#0 347092907#0.3 347092907#0.13 347092907#0.19 347092907#0.26 347092907#0.31 347092907#0.38 347092907#0.40 347092907#0.45 347092907#0.51 6405076#0 6405076#0.10 6405076#0.18 6405076#0.21 6405076#0.58 6405076#0.79 6405076#0.81 347092915#0 347092915#0.8 347092915#0.32 347092915#0.44 347092915#0.89 347092915#0.182 -6506833#10 -6506833#10.7 -6506833#10.19 -6506833#10.42 -6506833#10.46 -6506833#10.83 -6506833#4 -6506833#4.8 -6506833#4.38 -6506833#4.55 -6506833#4.83 6346769#0 6346769#0.7 6346769#0.45 6346769#0.83 6346769#0.104 -901477545#2 -901477545#2.11 -901477545#2.91 -32135545#3 -32135545#3.7 -32135545#3.47 -32135545#3.102 -256996971#4 -256996971#4.8 -256996971#4.56 -256996971#4.61 -256996971#4.70 -256996971#4.86 -347092910#2 -347092910#2.9 -347092910#2.11 -347092910#2.14 -347092910#2.40 -347092909#2 -347092909#2.56 -347092909#2.88 -347092909#2.100 -347092909#2.109 -347092909#2.130 436480244#0 436480244#0.2 436480244#0.5 436480244#0.11 6435230#0 6435230#0.33 6435230#0.60 617435761#0 617435761#0.8 617435761#0.21 617435761#0.40 617435761#0.83 617435761#5 617435761#5.33 617435761#5.45 6476327#4 6476327#4.7 6476327#4.35 6476327#4.86 893868549#12 893868549#12.7 893868549#12.90 901474739#0 901474739#0.7 901474739#0.111 901474739#3 901474739#3.6 901474739#3.41 901474739#3.71 901474739#7 901474739#7.8 901474739#7.82 -901477546#2 -901477546#2.6 -901477546#2.45 -901477546#2.87 -901474740#3 -901474740#3.7 -901474740#3.53 -901474740#3.61 -901474740#3.102 -256996974#10 -256996974#10.11 -256996974#10.59 -256996974#10.79 -256996974#10.90 6465130#0 6465130#0.8 6465130#0.84 6465130#3 6465130#3.8 6465130#3.46 6465130#3.84 6465130#7 6465130#7.8 6465130#7.44 6465130#7.70 6465130#7.74 22760519#3 22760519#3.9 22760519#3.21 22760519#3.33 22760519#3.91 965874293#0 965874293#0.9 965874293#0.40 965874293#2 965874293#2.45 -749863323#6 -749863323#6.8 -749863323#6.39 -749863323#6.144 -749863323#6.187 -749863323#3 -749863323#3.10 -749863323#3.85 -749863323#3.126 792010738#0 792010738#0.4 792010738#0.9 792010738#0.19 -749863325#1 -749863325#1.6 -749863325#1.16 -749863325#1.39 -749863325#1.43 -749863325#1.51 -749863325#1.75 -749863325#1.82 -749863325#1.101 -749863325#1.117 -749863325#1.139 -749863325#1.157 -749863325#1.165 -749863325#1.172 -749863325#1.175 -749863325#1.187 -749863325#1.189 -749863325#1.199 -749863325#1.212 -749863325#1.248 -749863325#1.271 500021854#0 500021854#0.9 500021854#0.38 500021854#0.82 6477649#6 6477649#6.9 6477649#6.30 6477649#6.32 6477649#6.45 6477649#6.63 6477649#6.92 6477649#6.106 6477649#6.147 6477649#6.175 6477649#6.199 6477649#6.205 6477649#6.230 6477649#6.286 6477649#6.306 6477649#6.322 263712957#10 263712957#10.9 263712957#10.78 6506833#24 6506833#24.9 6506833#24.30 6506833#24.48 6506833#24.87 6371699#2 6371699#2.33 6371699#2.42 6371699#2.187 6371699#6 6371699#6.8 6371699#6.186 -6388742#15 -6388742#15.8 -6388742#15.46 -6388742#15.84 -6388742#11 -6388742#11.8 -6388742#11.30 -6388742#11.46 -6388742#11.67 -6388742#11.87 -6388742#5 -6388742#5.6 -6388742#5.38 -6388742#2 -6388742#2.30 -6388742#2.38 965874292#7 965874292#7.8 965874292#7.41 965874292#10 965874292#10.35 965874292#12 965874292#12.8 965874292#12.69 158123767#0 158123767#0.10 158123767#0.11 158123767#0.50 158123767#0.74 158123767#0.86 158123767#0.115 158123767#0.122 158123767#0.134 158123767#0.139 158123767#0.166 795669781 795669781.52 795669781.56 460421481#1 460421481#1.61 460421481#1.85 256997441#0 256997441#0.11 256997441#0.18 256997441#0.62 256997441#3 256997441#3.6 256997441#3.53 6351349#5 661086629#0 -6371720#6 -185483738#0 -6414318#4 -157167355#0"/>
</vehicle>
</routes>
