<?xml version="1.0" encoding="UTF-8"?>
<routes xmlns:xsi="http: // www.w3.org/2001/XMLSchema-instance" xsi:noNamespaceSchemaLocation="http: // sumo.dlr.de/xsd/routes_file.xsd">
<vType id="veh_passenger" vClass="passenger"/>

<vehicle id = "veh0" type= "veh_passenger" depart="0" >
<route edges =" -813722269#3 -813722269#3.7 -813722269#3.48 -813722269#3.84 -813722269#3.86 620762213#0 620762213#0.9 620762213#0.88 620762212#0 620762212#0.8 620762212#0.52 6343949#6 6343949#7 6343949#8 6343949#8.52 6343949#10 6343949#10.49 6343949#12 6343949#12.47 -525497324#3 -525497324#2 243349944#4 243349944#4.53 243349944#6 243349944#7 -460419011#3 -460419011#2 6464126#3 6464126#3.49 6464126#5 -460419028#3 243349338#0 243349338#0.18 243349338#1 243349338#2 243349338#3 243349338#3.49 243349338#5"/>
</vehicle>
<vehicle id = "veh1" type= "veh_passenger" depart="0" >
<route edges =" -6457203#16 -6457203#16.59 975126260#0 975126260#0.49 -6505136#16 6368504#5 6368504#5.48 6368504#7 6368504#7.50 -6513783#8 -6513783#7 37657905#3 37657905#3.48 37657905#5 37657905#5.10 37657905#5.46 37657905#7 37657905#7.49 476409329 -6383185#5 6384373#1 6384373#2 6384373#2.45 6384373#2.56 -65588097#1 -65588097#1.119 337818330 6463035#0 6463035#0.14 6463035#0.38 6463035#3 -6495801#0 -185485132#12 -185485132#12.125 -185485132#11 -185485132#11.16 243349945#9 243349945#9.50 -6494975#8 -6494975#7 -6494975#6 -6494975#6.81 256994205#3 428246847#0 428246847#0.8 428246847#0.22 6386110#0 6386110#0.16 6386110#0.25 6386110#0.55 -243349338#6 -243349338#6.14"/>
</vehicle>
<vehicle id = "veh2" type= "veh_passenger" depart="0" >
<route edges =" -6522868 -6403883#7 -6403883#6 -6403883#5 -6403883#4 -6403883#3 -6403883#2 158882505#7 158882505#8 8111709#0 8111709#0.47 8111709#2 8111709#2.49 8111709#4 8111709#4.49 -6513783#5 6384359#8 6384359#9 6384359#9.26 -6381494#3 -6381494#3.43 6463017#6 6463017#6.48 -6386837#0 337739268 337739268.124 337739267#0 337818462 337818462.3 337818462.6 337739271#1 337739271#1.6 337739269#0 -460419011#4 243349944#8 -801995081#5 -801995081#5.197 -801995081#5.209 -801995081#2 -801995081#2.109 -801995081#0 243339793#4 243339793#5 243339793#6 243339793#6.50 243339793#6.74 -22917112 -185485118#1 6514312#0 6514312#0.70 -6523501#6 -6523501#6.6 185485127#1 -6494970#4 -6494970#4.172 -6494970#2 -6494970#2.4 -6494970#2.100 6358721#0 6358721#0.9 6415147#4 6415147#5 6415147#6 6351349#2 6351349#3 6351349#3.107 6351349#5 -185483733 -6414318#4 -157167355#0"/>
</vehicle>
<vehicle id = "veh3" type= "veh_passenger" depart="0" >
<route edges =" 817434294 817434294.10 817434294.36 817434294.44 817434294.63 817434294.119 6343949#0 6343949#0.7 6343949#0.86 6343949#3 6343949#3.9 6343949#3.49 620762212#3 6430729#6 6430729#6.47 6430729#6.48 6430729#9 6430729#9.48 6430729#11 6430729#11.51 6430729#13 6430729#13.48 6430729#15 6430729#15.48 6430729#17 6430729#17.51 -620762224#0 -66558981#7 -66558981#7.65 -66558981#7.83 -66558981#7.105 -66558981#7.123 -66558981#2 -66558981#2.131 -66558981#2.234 525497323#2 525497323#2.81 -481291488#2 -481291488#1 -481291488#0 -481291488#0.69 -481291488#0.82 -6447971#10 -6447971#10.11 -6447971#9 -6447971#8 -6447971#7 -6447971#6 -6447971#5 -6447971#4 169917351#6 169917351#7 169917351#7.49 169917351#9 169917351#9.48 169917351#9.87 169917351#12 169917351#12.9 169917351#12.42 169917351#12.90 -6360239#3 -6360239#3.6 -6360239#3.69 -6360239#3.102 6487445#0 6487445#0.8 6415147#0 6415147#0.61 6449462#3 6449462#3.7 6449462#3.50 6449462#3.60 6449462#3.72 6449462#3.87 795669782#0 795669782#0.54 795669782#2 6371720#2 6371720#3 157167355#0"/>
</vehicle>
<vehicle id = "veh4" type= "veh_passenger" depart="3605" >
<route edges =" -816616074#1 -816616074#1.10 -816616074#1.14 -816616074#1.119 428341734#4 428341734#4.8 428246439#0 428246439#0.14 -569505978#1 -569505978#1.10 -569505979 -569505979.32 -569505979.79 337673338#0 337673338#0.14 185882764 185882764.13 185882764.14 185882765 185882765.16 185882765.26 185882765.30 185882765.31 395933841 164418944#0 164418944#0.13 164418944#0.18 164418944#0.32 164418944#0.39 6476313#0 6476313#0.3 6476313#0.6 6476313#0.10 6476313#0.11 6476313#0.80 6476313#0.98 349901822#0 349901822#0.9 96029553#0 96029553#0.9 96029553#0.15 96029553#0.59 8071900#0 8071900#0.7 8071900#0.18 8071900#0.88 22917111#27 22917111#27.7 22917111#27.54 22917111#27.95 -332092195#2 -332092195#2.43 -332092195#2.107 -620762214 -8071898#3 6343949#8 6343949#8.52 -65588093#1 -65588093#1.103 -65588093#1.123 -65588093#1.126 -65588093#1.130 739843348#0 739843348#0.4 739843348#0.9 620762218#0 620762218#0.55 620762218#0.66 620762218#0.68 620762218#0.81 -6440348#7 -6440348#7.9 243349944#0 243349944#0.4 243349944#0.20 243349944#0.49 243349944#4 243349944#4.53 243349944#6 243349944#7 -460419011#3 40416132#1 40416132#1.90 256994206#0 256994206#0.8 256994206#0.43 256994206#0.60 460419028#0 460419028#0.11 460419028#0.49 460419028#0.79 460419028#0.95 243349338#0 243349338#0.18 6360256#4 6360256#5 6447445#3 6447445#3.51 -22917113#4 256994205#1 -185485132#6 -185485132#6.52 243349338#3 243349338#3.49 243349338#5"/>
</vehicle>
<vehicle id = "veh5" type= "veh_passenger" depart="3605" >
<route edges =" -6457203#16 -6457203#16.59 975126260#0 975126260#0.49 975126260#2 975126260#2.48 603522173#0 603522173#0.48 -6513783#9 -6513783#8 -170683231#20 -170683231#20.51 6381494#12 6381494#12.56 6368504#12 6368504#12.37 6368504#12.47 6368504#15 6368504#15.40 6368504#15.46 6368504#15.67 476409332#0 476409332#0.44 476409332#2 476409332#2.43 -6460085#6 -6460085#6.27 -6460085#5 -6460085#5.109 -6460085#4 -6460085#4.20 -6460085#3 -6460085#3.55 -6460085#1 -6460085#1.27 -6460085#1.86 -6460085#1.119 465799093#0 465799093#0.8 465799093#0.46 465799093#0.91 337818330 428315592#0 428315592#0.12 428315592#0.53 428315592#0.95 428315592#3 428315592#3.28 428315592#3.60 6495798#0 6495798#0.9 6495798#0.43 170683231#3 6448612#8 -476409332#5 65588097#7 65588097#7.42 65588097#9 -6523125#0 6460085#12 6460085#12.26 735164737 735164737.10 735164737.15 6451291#0 6451291#0.7 6451291#0.16 6451291#0.45 735164739 735164739.21 735164739.27 735164739.31 6459736#0 6459736#0.54 6459736#2 6459736#2.37 6459736#2.48 6459736#2.60 6459736#2.65 6459736#2.73 -6495798#8 -6495798#8.42 6522860#11 6522860#11.100 6522860#11.110 -170683288#6 -170683288#5 -170683288#5.41 -170683288#3 -170683288#3.39 -170683288#3.69 -170683288#3.76 -170683288#1 -170683288#1.6 -170683288#1.13 170683231#0 170683231#0.34 -6356667#1 -6356667#1.147 -6356667#1.181 -428315591#1 -6356671#2 -6356671#2.8 -6356671#2.34 -6356676#2 -6356676#2.14 -6356676#2.25 -6356676#2.40 170683665#3 170683665#3.38 -279467136#1 -6463035#7 -6463035#6 -6463035#6.50 -6463035#6.52 -6495801#0 -185485132#12 -185485132#12.125 805658294#0 805658294#0.38 805658294#0.52 805658294#2 805658294#2.39 -243349942#1 -243349942#1.104 -243349942#0 -243349942#0.28 -22760521#3 -6447445#10 -6447445#10.48 -6494975#6 -6494975#6.81 256994205#3 428246847#0 428246847#0.8 428246847#0.22 6386110#0 6386110#0.16 6386110#0.25 6386110#0.55 -243349338#6 -243349338#6.14"/>
</vehicle>
<vehicle id = "veh6" type= "veh_passenger" depart="3605" >
<route edges =" -6522868 6403883#8 -6428544#15 -6428544#15.8 -6428544#13 32143939 6323849#0 6323849#0.39 6323849#2 6323849#3 6323849#3.9 6323849#3.21 6323849#3.30 6323849#3.53 6323849#3.67 -6403883#6 -6403883#5 -6403883#4 -158882511#7 -158882511#7.20 -158882511#7.33 -160552467#9 158882517#4 158882517#5 158882517#6 158882517#6.46 158882517#6.66 158882517#6.67 158882517#6.69 158882517#6.71 158882517#6.73 -6457203#7 -6457203#7.15 -6457203#7.37 -6457203#7.51 -6457203#7.77 -6457203#7.91 -6457203#3 -6457203#3.34 -6457203#3.51 -6457203#3.73 -6457203#3.81 -171739214#24 -171739214#24.39 -171739214#24.44 -171739214#24.63 -171739214#20 -171739214#17 -171739214#17.19 -171739214#17.44 -160552467#5 -160552467#5.18 -160552467#5.25 -160552467#5.30 -160552467#5.63 -160552467#5.85 -160552467#0 171739207#2 171739207#2.46 171739207#4 171739207#4.40 171739207#4.43 171739207#4.47 171739207#4.50 171739207#4.52 171739207#4.54 171739207#4.77 171739207#4.80 171739207#4.82 171739207#4.85 171739207#4.87 171739207#4.90 171739207#4.113 292812445#0 292812445#0.35 292812445#0.50 292812445#3 292812445#3.49 -6440348#14 6430729#15 6430729#15.48 525497324#8 6513783#0 6513783#1 6513783#1.64 6513783#2 6513783#2.8 6513783#2.46 6513783#2.65 6513783#2.68 6384359#8 6384359#9 6384359#9.26 -6381494#3 -6381494#3.43 6463017#6 6463017#6.48 6386837#1 8071897#0 8071897#0.89 -6444677 481291015#0 481291015#0.20 481291015#0.59 -343521145#3 -343521145#3.32 -343521145#3.66 -343521145#3.101 -343521145#3.142 -343521145#3.155 337739267#0 337818462 337818462.3 337818462.6 337739271#1 337739271#1.6 337739269#0 337739269#1 337739269#1.30 -801995081#6 -801995081#6.9 -801995081#5 -801995081#5.197 -801995081#5.209 -801995081#2 -801995081#2.109 -801995081#0 243339793#4 243339793#5 243339793#6 243339793#6.50 243339793#6.74 22917113#0 22917113#0.56 6464126#9 6464126#9.46 6464126#11 6464126#11.50 6464126#13 6464126#13.49 6464126#15 6464126#15.47 -795671505#1 -795671505#1.57 -795671505#1.102 795671506#0 795671506#0.46 -6501822#8 -6501822#8.7 6441276#0 6441276#0.41 359671039#0 6336174#2 6336174#2.43 6336174#4 -6506505#4 -259277920#1 -259277920#0 -259277920#0.32 -259277920#0.50 -8071924#5 -6501822#6 -6501822#6.44 185485117#2 -6396312#2 -6396312#1 -185485127#10 -185485127#9 -185485127#9.41 -185485127#9.47 -6472293#2 -6507813#0 6391682#2 6391682#2.12 6391682#2.24 6391682#2.34 6391682#2.45 -185485127#5 -185485127#5.56 336908264#2 336908264#2.29 -169917351#27 -169917351#27.11 -169917351#27.76 -6494970#2 -6494970#2.4 -6494970#2.100 6358721#0 6358721#0.9 6415147#4 6415147#5 6415147#6 6415147#7 6354836#1 6354836#1.40 -642753173 642753174 -6384264 -295783215#1 14374224#0 14374224#0.36 14374224#0.80 14374224#0.83 14374224#4 14374224#4.44 14374224#4.54 14374224#4.84 14374224#4.122 -6414318#4 -157167355#0"/>
</vehicle>
<vehicle id = "veh7" type= "veh_passenger" depart="3605" >
<route edges =" -813722269#3 -813722269#3.7 -813722269#3.48 -813722269#3.84 -813722269#3.86 569505974#0 569505974#0.10 569505974#0.37 816616073#0 816616073#0.78 6343949#3 6343949#3.9 6343949#3.49 620762212#3 6430729#6 6430729#6.47 6430729#6.48 -65588100#4 -65588100#4.73 -65588100#4.110 -65588100#1 -65588100#1.65 -826314455#3 -826314455#3.64 -826314455#3.71 -826314455#3.76 -826314455#3.90 -826314455#3.118 825336588#0 825336588#0.7 349901822#2 349901822#2.21 332092195#0 332092195#0.9 332092195#0.74 -22917111#30 -22917111#30.9 -22917111#30.50 -22917111#30.96 8071900#4 8071900#4.7 8071900#4.49 8071900#4.88 8071900#8 8071900#8.6 8071900#8.7 8071900#8.49 8071900#8.53 -525497324#0 -6512920#11 -6512920#11.12 -6512920#11.49 -6512920#11.62 -6512920#11.76 -6512920#11.147 -6512920#7 -6512920#7.4 -6512920#7.122 -6512920#7.124 6464138#12 6464138#12.51 -6481166#10 -6481166#10.6 -6481166#10.8 -6481166#10.120 353690154#15 353690154#15.50 243339793#0 243339793#0.48 243339793#2 243339793#2.49 -801995082 481291014#0 481291014#0.53 460419024#0 460419024#0.9 460419024#0.19 460419024#0.34 460419024#0.53 460419024#0.102 460419024#5 460419024#5.50 460419024#5.63 460419024#5.69 6516509#0 6516509#0.7 6516509#0.30 6516509#0.46 6516509#0.66 6516509#0.90 6516509#0.105 6516509#0.109 -6463536#1 -6463536#1.10 -6463536#1.11 -6463536#1.22 -6463536#1.32 -6463536#1.39 -6463536#1.43 -6463536#1.50 -6463536#1.60 -6463536#1.69 -6380913#7 -6380913#7.22 -6467507#7 -6467507#7.46 -6467507#5 -6467507#5.50 6447971#6 6447971#7 -263669069#0 -6481166#6 -6481166#5 -6481166#4 169917351#4 169917351#4.51 6447971#4 6507809#4 6507809#5 6507809#5.51 6507809#7 6507809#7.46 6507809#7.87 6516509#11 6516509#11.6 6516509#11.34 6516509#11.86 6516509#15 6516509#15.7 6516509#15.35 6516509#15.48 6516509#15.68 6516509#15.70 6516509#15.79 6516509#15.84 6516509#15.98 6516509#15.101 256996976#0 256996976#0.11 256996976#0.20 256996976#0.46 256996976#0.79 6360239#0 6360239#0.9 6360239#0.42 6360239#0.105 169917351#16 169917351#16.9 169917351#16.77 169917351#19 169917351#19.6 169917351#19.71 -6523501#2 -6523501#2.5 -6523501#2.101 6497081#0 6497081#0.8 6497081#2 6497081#2.38 6497081#2.47 6497081#2.53 6497081#2.60 6497081#2.67 6497081#2.70 6497081#2.74 6497081#2.81 6497081#2.120 6497081#6 6497081#6.44 -6414318#2 -6414318#2.8 795669782#2 6371720#2 6371720#3 157167355#0"/>
</vehicle>
<vehicle id = "veh8" type= "veh_passenger" depart="7210" >
<route edges =" -816616074#1 -816616074#1.10 -816616074#1.14 -816616074#1.119 428341734#4 428341734#4.8 428246439#0 428246439#0.14 -569505978#1 -569505978#1.10 -569505979 -569505979.32 -569505979.79 337673338#0 337673338#0.14 337673337 337673339 826314456#0 826314456#0.9 826314456#0.50 826314456#0.96 826314456#0.103 349901821 825336588#0 825336588#0.7 96029553#0 96029553#0.9 96029553#0.15 96029553#0.59 8071900#0 8071900#0.7 8071900#0.18 8071900#0.88 22917111#27 22917111#27.7 22917111#27.54 22917111#27.95 460423532#0 460423532#0.2 620762218#0 620762218#0.55 620762218#0.66 620762218#0.68 620762218#0.81 620762218#3 620762218#3.7 620762218#5 620762218#5.18 620762218#5.80 -66558981#7 -66558981#7.65 -66558981#7.83 -66558981#7.105 -66558981#7.123 243349944#6 243349944#7 243349944#8 -801995081#5 -801995081#5.197 -801995081#5.209 256994206#0 256994206#0.8 256994206#0.43 256994206#0.60 460419028#0 460419028#0.11 460419028#0.49 460419028#0.79 460419028#0.95 460419028#3 460419028#4 243339793#5 6360256#1 6360256#1.7 6464126#7 6464126#7.50 6464126#9 6464126#9.46 6464126#11 6464126#11.50 6494975#2 243349338#5"/>
</vehicle>
<vehicle id = "veh9" type= "veh_passenger" depart="7210" >
<route edges =" -6457203#16 -6457203#16.59 975126260#0 975126260#0.49 975126260#2 975126260#2.48 603522174#0 6368504#7 6368504#7.50 -6513783#8 -170683231#20 -170683231#20.51 -170683231#18 -170683231#18.37 -170683231#18.49 -170683231#15 -170683231#15.34 -170683231#15.47 -170683231#15.61 -170683231#11 -170683231#11.43 -6383185#6 -6383185#5 6384373#1 6384373#2 6384373#2.45 6384373#2.56 -65588097#1 -65588097#1.119 337818330 -460421484#1 -460421484#1.13 -6486416#2 -6486416#2.9 -6486416#2.116 805680044#1 805680044#1.7 805680044#1.49 805680044#1.91 805680044#5 805680044#5.6 805680044#5.49 805680044#8 805680044#8.47 -6494975#10 -6494975#10.123 -6494975#10.131 805658294#2 805658294#2.39 805658294#4 805658294#4.48 805658294#6 805658294#6.47 160624558#3 160624558#3.42 6353177#0 6353177#0.8 6353177#0.44 6353177#0.135 6463035#12 6463035#12.7 -6521828#3 -6521828#3.7 -6521828#3.107 -6521828#3.133 -359671039#10 -359671039#10.86 -359671039#8 -359671039#8.55 243349945#18 243349945#19 -352434874#2 -352434874#1 -6447445#16 -6447445#15 -6447445#14 -6447445#13 -6447445#13.40 -6447445#11 -22760521#2 -22760521#2.81 -22760521#2.121 428246847#0 428246847#0.8 428246847#0.22 6386110#0 6386110#0.16 6386110#0.25 6386110#0.55 -243349338#6 -243349338#6.14"/>
</vehicle>
<vehicle id = "veh10" type= "veh_passenger" depart="7210" >
<route edges =" -6522868 -6403883#7 -6323849#4 -6323849#4.14 -6323849#4.28 -6323849#4.52 -6323849#4.61 -6323849#4.72 -160552467#11 -160552467#11.13 -160552467#11.23 -160552467#11.33 -160552467#11.44 -160552467#11.54 -160552467#11.62 -160552467#11.70 -160552467#11.80 -160552467#11.88 -160552467#11.115 -160552467#11.127 -8071379#3 -8071379#3.41 -6411908#5 -6411908#5.12 -6411908#5.22 -6411908#5.31 158882511#4 -160552467#9 158882517#4 158882517#5 158882517#6 158882517#6.46 158882517#6.66 158882517#6.67 158882517#6.69 158882517#6.71 158882517#6.73 -6457203#7 -6457203#7.15 -6457203#7.37 -6457203#7.51 -6457203#7.77 -6457203#7.91 8111709#0 8111709#0.47 8111709#2 8111709#2.49 8111709#4 8111709#4.49 -6513783#5 6384359#8 6384359#9 6384359#9.26 -6381494#3 -6381494#3.43 6463017#6 6463017#6.48 -6386837#0 337739268 337739268.124 337739267#0 337818462 337818462.3 337818462.6 337739271#1 337739271#1.6 337739269#0 337739269#1 337739269#1.30 337739269#3 337739269#3.69 396055523#5 396055523#5.8 396055523#5.42 243349945#0 243349945#0.6 243349945#0.83 -6360256#9 -6360256#9.6 -6360256#7 -6360256#7.5 6447445#3 6447445#3.51 6447445#5 6447445#5.47 -185485132#8 -185485132#8.81 -185485132#6 -185485132#6.52 -243349338#2 22917113#3 -256994205#0 -256994205#0.33 -396055524#1 -396055524#1.29 -396055524#1.40 -396055524#1.64 -396055524#1.86 -256994206#2 -256994206#2.11 -256994206#2.27 -256994206#2.62 -801995081#2 -801995081#2.109 6464126#5 6464126#6 -6360256#1 -6360256#1.102 243339793#6 243339793#6.50 243339793#6.74 243339793#9 243339793#9.48 -185485132#2 -185485132#2.8 481291012#2 481291012#2.49 -6494970#7 -6494970#6 -6494970#6.6 -6494970#4 -6494970#4.172 -6494970#2 -6494970#2.4 -6494970#2.100 6358721#0 6358721#0.9 6415147#4 428247193#3 428247193#3.27 486632638#0 486632638#0.14 486632638#0.27 256996977#0 256996977#0.9 256996977#0.40 6489809#0 6489809#0.40 6415147#6 6351349#2 6351349#3 6351349#3.107 6351349#5 -185483733 -6414318#4 -157167355#0"/>
</vehicle>
<vehicle id = "veh11" type= "veh_passenger" depart="7210" >
<route edges =" -813722269#3 -813722269#3.7 -813722269#3.48 -813722269#3.84 -813722269#3.86 569505974#0 569505974#0.10 569505974#0.37 816616073#0 816616073#0.78 6343949#3 6343949#3.9 6343949#3.49 6343949#6 -65588100#1 -65588100#1.65 57883609#3 57883609#3.43 57883609#3.52 57883609#3.60 57883609#3.80 -8071898#3 -8071898#2 -8071898#1 -8071898#1.60 -8071898#1.73 -8071898#1.89 -8071898#1.91 292812445#0 292812445#0.35 292812445#0.50 -65588093#3 -65588093#2 6343949#10 6343949#10.49 6343949#12 6343949#12.47 -525497324#3 -525497324#2 243349944#4 243349944#4.53 -66558981#2 -66558981#2.131 -66558981#2.234 -6481166#12 -293775902#14 -293775902#14.49 -293775902#14.96 -6512920#7 -6512920#7.4 -6512920#7.122 -6512920#7.124 -6464138#11 -6464138#11.9 -6464138#11.48 -6464138#11.90 -6440371#5 -6440371#5.4 -6440371#5.6 -6440371#5.7 -6440371#5.119 -6440371#5.121 353690154#8 353690154#8.7 353690154#8.42 353690154#8.50 353690154#8.92 353690154#12 353690154#12.6 353690154#12.32 353690154#15 353690154#15.50 243339793#0 243339793#0.48 -460419011#0 -460419011#0.11 -460419014 -460419014.67 -460419007#0 -460419007#0.17 -460419007#0.46 -6515975#8 6463532#2 6463532#2.50 -6380913#7 -6380913#7.22 -6380913#5 6507809#7 6507809#7.46 6507809#7.87 6507809#10 6507809#10.8 6507809#10.91 -6360239#7 -6360239#7.6 -6360239#7.47 -6360239#7.86 -6360239#3 -6360239#3.6 -6360239#3.69 -6360239#3.102 256996976#3 256996976#3.7 256996976#3.76 6452520#0 6452520#0.8 6452520#0.105 169917351#19 169917351#19.6 169917351#19.71 -6523501#2 -6523501#2.5 -6523501#2.101 6497081#0 6497081#0.8 6497081#2 6497081#2.38 6497081#2.47 6497081#2.53 6497081#2.60 6497081#2.67 6497081#2.70 6497081#2.74 6497081#2.81 6497081#2.120 6497081#6 6497081#6.44 6497081#8 -6371720#2 795669782#3 795846818#0 795846818#0.1 795846818#2 795846818#2.7 795846818#2.14 795846818#2.102 22917670#10 22917670#10.5 22917670#10.34 481291010#3 481291010#3.6 481291010#3.100 369455641#1 369455641#1.28 369455641#1.78 512126021#0 512126021#0.7 512126021#0.31 512126021#0.66 157167355#0"/>
</vehicle>
<vehicle id = "veh12" type= "veh_passenger" depart="10815" >
<route edges =" -813722269#3 -813722269#3.7 -813722269#3.48 -813722269#3.84 -813722269#3.86 569505974#0 569505974#0.10 569505974#0.37 816616073#0 816616073#0.78 813722270#0 813722270#0.7 813722270#0.42 813722270#0.74 813722270#0.75 813722270#0.121 6430729#3 6430729#3.9 6430729#3.48 6430729#6 6430729#6.47 6430729#6.48 6430729#9 6430729#9.48 -8071898#1 -8071898#1.60 -8071898#1.73 -8071898#1.89 -8071898#1.91 292812446#0 292812446#0.15 292812446#0.27 292812446#0.70 292812446#0.83 292812446#0.91 292812446#0.121 -6463027#1 -6463027#1.9 -6463027#1.45 -6463027#1.48 -6463027#1.50 -6463027#1.52 -6463027#1.54 -6463027#1.56 -6463027#1.58 -6463027#1.60 -6463027#1.62 -6463027#1.63 -6463027#1.65 -337668916#10 6403874#1 6403874#1.38 -171739214#17 -171739214#17.19 -171739214#17.44 160552467#6 160552467#6.15 160552467#6.20 160552467#6.50 160552467#8 158882517#4 158882517#5 -6469837#2 -6469837#1 -6469837#1.51 171739214#21 171739214#21.8 171739214#21.28 171739214#21.32 -6457203#0 6384359#0 6384359#0.22 6384359#0.45 6384359#0.50 6384359#4 6384359#4.13 6384359#4.31 6384359#4.51 6384359#6 6384359#6.48 -6513783#4 -6513783#4.21 -6513783#4.23 -6513783#4.43 -6513783#4.80 -6513783#1 -6513783#1.10 -6513783#0 -525497324#8 6430729#17 6430729#17.51 -620762224#0 -66558981#7 -66558981#7.65 -66558981#7.83 -66558981#7.105 -66558981#7.123 243349944#6 243349944#7 243349944#8 801995081#6 801995081#6.192 337739269#3 337739269#3.69 396055523#5 396055523#5.8 396055523#5.42 243349945#0 243349945#0.6 243349945#0.83 243349945#3 243349945#3.5 243349945#3.45 243349945#3.49 243349945#6 243349945#6.48 243349945#6.88 -185485132#10 -185485132#9 -185485132#8 -185485132#8.81 256994205#2 256994205#2.24 256994205#2.72 256994205#3 428246847#0 428246847#0.8 428246847#0.22 6386110#0 6386110#0.16 6386110#0.25 6386110#0.55 -243349338#6 -243349338#6.14"/>
</vehicle>
<vehicle id = "veh13" type= "veh_passenger" depart="10815" >
<route edges =" -816616074#1 -816616074#1.10 -816616074#1.14 -816616074#1.119 428341734#4 428341734#4.8 428246439#0 428246439#0.14 428246438#0 428246438#0.8 428246440#0 428246440#0.62 800744529#0 800744529#0.7 800744529#0.52 800744529#0.89 -349901821 -6476313#2 -6476313#2.11 -6476313#2.29 -6476313#2.98 -6476313#2.99 -6476313#2.103 -6476313#2.107 -164418944#3 -164418944#3.9 -164418944#3.15 -164418944#3.30 -164418944#3.35 -395933841 -243338979#28 -243338979#28.13 -243338979#28.49 -243338979#28.142 -243338979#28.143 -243338979#25 -243338979#25.8 -243338979#25.64 -243338979#25.77 -243338979#25.120 893866060#4 893866060#4.6 893866060#4.48 893866060#4.89 893866060#8 893866060#8.7 893866060#8.65 893866060#8.89 6464138#0 6464138#0.7 6464138#0.53 6464138#0.92 6464138#4 6464138#4.6 6464138#4.51 6464138#4.88 6464138#8 6464138#8.7 6464138#8.49 6464138#8.88 6464138#12 6464138#12.51 6464138#14 -481291488#1 6464126#0 6464126#0.46 6464126#0.49 6464126#3 6464126#3.49 6464126#5 460419028#4 243339793#5 243339793#6 243339793#6.50 243339793#6.74 -22917112 481291012#0 481291012#0.24 481291012#0.32 185485132#2 185485132#2.104 243339793#11 243339793#11.47 6494975#1 6494975#1.9 6494975#2 243349338#5"/>
</vehicle>
<vehicle id = "veh14" type= "veh_passenger" depart="10815" >
<route edges =" 817434294 817434294.10 817434294.36 817434294.44 817434294.63 817434294.119 816616072#4 816616072#4.7 816616072#4.62 816616072#4.121 6430729#0 6430729#0.7 6430729#0.86 -813722270#4 -813722270#4.8 -813722270#4.54 -813722270#4.55 -813722270#4.87 -813722270#4.122 -816616073#1 -816616073#1.7 -569505974#1 -569505974#1.6 -569505974#1.33 620762213#0 620762213#0.9 620762213#0.88 -800744530#5 -800744530#5.9 -800744530#5.19 -800744530#5.73 -800744530#5.84 -800744530#5.118 -428246440#1 -428246440#1.7 -428246438#1 -428246438#1.17 -569505978#1 -569505978#1.10 -569505979 -569505979.32 -569505979.79 -395714916#1 -395714916#1.12 -568043367 -568043367.41 -568043367.79 -293775903#2 -293775903#2.10 -293775903#2.37 -293775903#2.89 -293775903#2.118 893866060#0 893866060#0.10 893866060#0.69 893866060#0.91 -243338979#20 -243338979#20.7 -243338979#20.121 -243338979#17 -243338979#17.7 -243338979#17.60 -243338979#17.109 -243338979#17.118 -243338979#17.120 486864438#2 486864438#2.6 486864438#2.88 353690152#0 353690152#0.9 353690152#0.90 460419029#0 460419029#0.7 460419029#0.51 460419029#0.53 460419029#0.89 460419029#5 460419029#5.8 460419029#5.52 460419029#5.91 6440371#0 6440371#0.7 6440371#0.8 6440371#0.119 6440371#0.121 353690154#8 353690154#8.7 353690154#8.42 353690154#8.50 353690154#8.92 353690154#12 353690154#12.6 353690154#12.32 -6481166#9 -6481166#9.8 486874837#1 -6447971#9 6425689#0 6425689#0.48 -460419007#0 -460419007#0.17 -460419007#0.46 460419008#0 460419008#0.50 -6380913#11 -6380913#11.53 -6380913#7 -6380913#7.22 -6380913#5 6507809#7 6507809#7.46 6507809#7.87 6516509#11 6516509#11.6 6516509#11.34 6516509#11.86 169917351#12 169917351#12.9 169917351#12.42 169917351#12.90 -6360239#3 -6360239#3.6 -6360239#3.69 -6360239#3.102 256996976#3 256996976#3.7 256996976#3.76 6449462#0 6449462#0.9 6449462#0.46 6449462#3 6449462#3.7 6449462#3.50 6449462#3.60 6449462#3.72 6449462#3.87 795669781 795669781.52 795669781.56 6497081#6 6497081#6.44 6497081#8 6371720#3 157167355#0"/>
</vehicle>
<vehicle id = "veh15" type= "veh_passenger" depart="10815" >
<route edges =" -814326475#2 -814326475#2.9 -814326475#2.24 -814326475#2.41 -814326475#2.70 -814326475#2.91 -6456052#5 -6456052#5.10 -6456052#5.36 -6456052#5.120 -607690679#4 -607690679#4.9 -607690679#4.87 -607690679#4.94 -607690679#4.99 -6447455#5 -6447455#5.3 -6447455#5.8 -6447455#5.47 -158612542#5 -158612542#5.11 -158612542#5.64 -158612542#5.73 -158612542#5.81 -158612542#5.114 -165086027#1 -165086027#1.2 -165086027#1.5 -759056491 -759056491.4 -759056491.8 -759056491.13 -759056491.17 -759056491.21 -759056491.26 -759056491.41 -759056491.81 -759056491.83 -759056491.88 -337673342#5 -337673342#5.3 -337673342#5.9 -337673342#5.13 -337673342#5.21 -337673342#5.35 -337673342#5.72 -337673342#0 6343890#0 6343890#0.54 6343890#0.56 6343890#0.58 6343890#0.59 6343890#0.61 -6475815#6 -6475815#6.16 -6501701#3 -6501701#3.11 -6501701#3.20 -607691082#0 -6475815#3 -6475815#3.2 -6475815#3.17 -6475815#3.46 -428089348#3 -428089348#3.15 -428089348#3.21 -428089348#3.28 -428341218#2 -428341218#2.3 -428341218#2.9 -65588069#1 -65588069#1.13 -428089351#1 -428089351#1.16 -293753570#2 -293753570#2.9 -293753570#2.83 293753571#0 293753571#0.5 293753571#0.20 293753571#0.24 -353690151#2 -353690151#2.9 -353690151#2.22 -353690151#2.24 -353690151#2.39 -353690151#2.72 -353690151#2.92 -433500388#1 -433500388#1.11 -433500388#1.46 -433500388#1.73 -433500388#1.113 -433500388#1.115 -428088900#1 -428088900#1.10 -428088894#1 -428088894#1.25 -428088883#1 -428088883#1.15 -428088897 -428088888 -737711647 -332223490#1 -332223490#1.19 -465971498#3 -465971498#3.2 -465971498#3.3 -465971498#3.5 -465971498#3.7 -465971498#3.10 -465971498#3.34 -465971498#3.84 369877037#0 369877037#0.9 369877037#0.83 537686684#0 537686684#0.43 537686684#0.53 -332223489#3 -332223489#3.4 -332223489#3.15 -332223489#3.17 -332223489#3.21 -401497115 -401497115.113 -401497115.170 -401497115.214 -428233435 -460425668 -460425668.5 425646007#0 425646007#0.10 425646007#0.17 425646007#0.20 425646007#0.22 425646007#0.27 425646003#0 425646003#0.15 6465162#0 6465162#0.2 6465162#0.6 6465162#0.11 6465162#0.36 428233434 428233434.31 428233434.58 -428233432#1 -428233432#1.12 -428233432#1.23 -6413383#4 -6413383#4.7 -6413383#4.29 -6413383#4.37 -6413383#4.48 -6413383#4.51 -6413383#4.53 32121988#0 32121988#0.9 32121988#0.30 32121988#0.39 32121988#0.51 32121988#0.83 6397352#0 6397352#0.2 6397352#0.5 6397352#0.9 6397352#0.56 6397352#0.105 617435761#5 617435761#5.33 617435761#5.45 6476327#4 6476327#4.7 6476327#4.35 6476327#4.86 6476327#8 6476327#8.6 6476327#8.84 893868547#0 893868547#0.8 893868547#0.91 876005346#0 876005346#0.6 876005346#0.88 876005346#3 876005346#4 876005346#4.5 876005346#4.68 901474741#0 901474741#0.6 901474741#0.85 901474741#0.87 6467507#0 6467507#0.7 6467507#0.88 6481166#6 263669069#0 -6447971#7 -6447971#6 6467507#4 6467507#4.48 -6515975#6 -6507809#4 -6447971#4 -169917351#5 -169917351#5.46 6481166#4 -6507809#2 -6507809#2.9 -6507809#2.91 -901477546#2 -901477546#2.6 -901477546#2.45 -901477546#2.87 -901477545#9 -901477545#9.8 -901477545#9.86 -6440364#3 -6440364#3.8 -6440364#3.13 -6440364#3.85 -6440364#3.103 6465130#0 6465130#0.8 6465130#0.84 -22917663#14 -22917663#14.8 -22917663#14.71 -22917663#14.88 6506833#5 6506833#5.9 6506833#5.46 6506833#5.50 6506833#5.72 6506833#5.85 6506833#11 6506833#11.9 6506833#11.45 6506833#11.74 6506833#11.79 22760519#0 22760519#0.7 22760519#0.27 22760519#3 22760519#3.9 22760519#3.21 22760519#3.33 22760519#3.91 965874293#0 965874293#0.9 965874293#0.40 49394452#8 49394452#8.8 49394452#8.188 -6388742#2 -6388742#2.30 -6388742#2.38 965874292#7 965874292#7.8 965874292#7.41 965874292#10 965874292#10.35 965874292#12 965874292#12.8 965874292#12.69 158123767#0 158123767#0.10 158123767#0.11 158123767#0.50 158123767#0.74 158123767#0.86 158123767#0.115 158123767#0.122 158123767#0.134 158123767#0.139 158123767#0.166 -6449462#5 -6449462#5.92 -6449462#5.107 -6449462#5.119 -6449462#5.129 -6449462#5.172 6415147#2 6415147#3 6415147#4 -428247193#2 -428247193#2.56 -428247193#2.61 -428247193#2.96 -428247193#2.117 -428247193#2.121 -428247193#2.140 -428247193#2.154 -428247195 -428247195.5 256997441#0 256997441#0.11 256997441#0.18 256997441#0.62 14374224#4 14374224#4.44 14374224#4.54 14374224#4.84 14374224#4.122 -6414318#4 -157167355#0"/>
</vehicle>
<vehicle id = "veh16" type= "veh_passenger" depart="14420" >
<route edges =" -813722269#3 -813722269#3.7 -813722269#3.48 -813722269#3.84 -813722269#3.86 569505974#0 569505974#0.10 569505974#0.37 816616073#0 816616073#0.78 813722270#0 813722270#0.7 813722270#0.42 813722270#0.74 813722270#0.75 813722270#0.121 813722270#5 813722270#5.7 813722270#5.118 171739207#0 171739207#0.49 160552467#0 337668916#8 337668916#8.47 -6403874#0 -65588100#6 -65588100#6.7 -65588100#4 -65588100#4.73 -65588100#4.110 6343949#7 6343949#8 6343949#8.52 -65588093#1 -65588093#1.103 -65588093#1.123 -65588093#1.126 -65588093#1.130 739843348#0 739843348#0.4 739843348#0.9 620762218#0 620762218#0.55 620762218#0.66 620762218#0.68 620762218#0.81 6440348#8 6440348#8.12 6440348#8.47 6440348#8.88 6440348#8.91 6343949#12 6343949#12.47 525497324#4 525497324#4.15 525497324#4.73 525497324#4.88 6430729#17 6430729#17.51 -620762224#0 -66558981#7 -66558981#7.65 -66558981#7.83 -66558981#7.105 -66558981#7.123 243349944#6 243349944#7 243349944#8 -801995081#5 -801995081#5.197 -801995081#5.209 256994206#0 256994206#0.8 256994206#0.43 256994206#0.60 -396055523#12 -396055523#12.14 -396055523#12.39 -396055523#12.50 -396055523#12.73 -396055523#12.93 -396055523#12.112 -396055523#12.118 6447445#0 6447445#0.8 6447445#0.87 6447445#3 6447445#3.51 22917113#5 243349944#15 243349944#15.48 243349944#17 243349944#17.50 -6494975#7 -6494975#6 -6494975#6.81 256994205#3 428246847#0 428246847#0.8 428246847#0.22 6386110#0 6386110#0.16 6386110#0.25 6386110#0.55 -243349338#6 -243349338#6.14"/>
</vehicle>
<vehicle id = "veh17" type= "veh_passenger" depart="14420" >
<route edges =" -816616074#1 -816616074#1.10 -816616074#1.14 -816616074#1.119 428341734#4 428341734#4.8 428246439#0 428246439#0.14 -569505978#1 -569505978#1.10 -569505979 -569505979.32 -569505979.79 337673338#0 337673338#0.14 185882764 185882764.13 185882764.14 185882765 185882765.16 185882765.26 185882765.30 185882765.31 395933841 164418944#0 164418944#0.13 164418944#0.18 164418944#0.32 164418944#0.39 164418944#4 164418944#4.7 164418944#4.8 164418944#4.29 164418944#4.51 164418944#4.95 -353690150#2 -353690150#2.8 -353690150#2.144 293775902#0 293775902#0.7 293775902#0.52 293775902#0.90 -22917111#19 -22917111#19.8 -22917111#19.123 -22917111#19.125 -22917111#19.126 6464138#4 6464138#4.6 6464138#4.51 6464138#4.88 6440371#6 6440371#6.4 6440371#6.6 6440371#6.7 6440371#6.122 293775902#8 293775902#8.6 293775902#8.49 293775902#8.91 6512920#8 6512920#8.4 6512920#8.74 6512920#8.89 6512920#8.101 6512920#8.139 525497323#0 525497323#0.50 525497323#2 525497323#2.81 40416132#0 40416132#0.19 40416132#1 40416132#1.90 -801995081#2 -801995081#2.109 6464126#5 -460419028#3 243349338#0 243349338#0.18 243349338#1 243349338#2 243349338#3 243349338#3.49 243349338#5"/>
</vehicle>
<vehicle id = "veh18" type= "veh_passenger" depart="14420" >
<route edges =" 817434294 817434294.10 817434294.36 817434294.44 817434294.63 817434294.119 6343949#0 6343949#0.7 6343949#0.86 6343949#3 6343949#3.9 6343949#3.49 -620762212#2 -620762212#2.76 -620762212#2.120 -800744530#5 -800744530#5.9 -800744530#5.19 -800744530#5.73 -800744530#5.84 -800744530#5.118 800744529#0 800744529#0.7 800744529#0.52 800744529#0.89 -349901821 -826314456#4 -826314456#4.12 -826314456#4.19 -826314456#4.65 -826314456#4.106 -337673339 -337673337 -337673338#1 -337673338#1.9 -395714916#1 -395714916#1.12 -568043367 -568043367.41 -568043367.79 893866065#0 893866065#0.10 893866065#0.66 893866065#0.92 893866065#3 893866065#3.6 893866065#3.48 893866065#3.88 -353690148#6 -353690148#6.8 -353690148#6.122 -893866060#7 -893866060#7.8 -893866060#7.49 -893866060#7.91 -243338979#20 -243338979#20.7 -243338979#20.121 353690157#0 353690157#0.5 353690157#0.19 353690157#0.47 353690157#0.72 353690157#0.87 893866056#0 893866056#0.8 893866056#0.64 893866056#0.88 -893866057 -893866057.8 -893866057.9 -893866057.122 460419029#0 460419029#0.7 460419029#0.51 460419029#0.53 460419029#0.89 460419029#5 460419029#5.8 460419029#5.52 460419029#5.91 460419029#9 460419029#9.7 460419029#9.45 512168129 512168129.37 512168129.70 512168129.110 512168129.120 512168129.122 353690154#12 353690154#12.6 353690154#12.32 353690154#15 353690154#15.50 243339793#0 243339793#0.48 243339793#2 243339793#2.49 -801995082 -6380913#14 -6425689#3 -6425689#3.44 -460419007#0 -460419007#0.17 -460419007#0.46 -263669069#2 -263669069#2.25 -263669069#2.47 -263669069#2.55 -263669069#0 -6481166#6 6467507#3 -6447971#5 -6447971#4 169917351#6 -6515975#3 -6515975#3.6 -6515975#3.44 -6515975#3.102 256996973#0 256996973#0.33 256996973#0.45 256996973#0.49 6380913#0 6380913#0.8 6380913#0.45 6380913#0.104 169917351#9 169917351#9.48 169917351#9.87 169917351#12 169917351#12.9 169917351#12.42 169917351#12.90 169917351#16 169917351#16.9 169917351#16.77 -6452520#2 -6452520#2.4 -6452520#2.101 460421482#0 460421482#0.8 460421482#0.73 6497081#0 6497081#0.8 6497081#2 6497081#2.38 6497081#2.47 6497081#2.53 6497081#2.60 6497081#2.67 6497081#2.70 6497081#2.74 6497081#2.81 6497081#2.120 6497081#6 6497081#6.44 -6414318#2 -6414318#2.8 -6414318#0 -6414318#0.76 -6414318#0.81 460418987#0 460418987#0.4 460418987#0.8 460418987#1 6371720#0 6371720#0.7 6371720#2 6371720#3 157167355#0"/>
</vehicle>
<vehicle id = "veh19" type= "veh_passenger" depart="14420" >
<route edges =" -814326475#2 -814326475#2.9 -814326475#2.24 -814326475#2.41 -814326475#2.70 -814326475#2.91 -6456052#5 -6456052#5.10 -6456052#5.36 -6456052#5.120 -6456052#1 -6456052#1.10 -6456052#1.62 -607691082#1 -607691082#0 -6475815#3 -6475815#3.2 -6475815#3.17 -6475815#3.46 -428089348#3 -428089348#3.15 -428089348#3.21 -428089348#3.28 -428341218#2 -428341218#2.3 -428341218#2.9 -65588069#1 -65588069#1.13 -428089351#1 -428089351#1.16 -428089352#1 -428089352#1.12 -428089350 -428089350.17 -428089350.43 -428227812#1 -428227812#1.9 -428227851#1 -428227851#1.5 -13726934#1 -13726934#1.5 -428227808 -428227847#1 -428227847#1.17 -749622503#15 -749622503#15.9 -749622503#15.31 -749622503#15.46 -749622503#15.51 -749622503#15.67 -749622503#15.85 -749622503#8 -749622503#8.7 -749622503#8.63 -749622503#8.83 -749622503#4 -749622503#4.84 -749622503#2 -749622503#2.9 -749622503#2.29 -749622503#2.64 -749622503#2.84 -369877039 -369877039.36 -369877039.55 -428088903#1 -428088903#1.15 428231018#0 428231018#0.12 428231018#0.30 465971497#0 465971497#0.10 465971497#0.34 369877037#0 369877037#0.9 369877037#0.83 537686684#0 537686684#0.43 537686684#0.53 65588108#0 65588108#0.15 65588108#0.50 6463530#0 6463530#0.2 6463530#0.8 6463530#0.13 6463530#0.54 6463530#0.95 -6456044#5 -6456044#5.7 -6456044#5.86 6467490#0 6467490#0.7 6467490#0.49 6467490#0.78 -401497115 -401497115.113 -401497115.170 -401497115.214 -537677478#2 -537677478#2.10 -537677478#2.11 -537677478#2.28 -537677478#2.36 -6456046#3 -6456046#3.6 -6456046#3.36 -6456046#3.42 -6456046#3.49 -6456046#3.56 -6456046#3.62 -6456046#3.66 -6456046#3.71 -6456046#3.76 -6456046#3.92 -6456046#3.102 -6456046#3.109 -6456046#3.112 440890310 440890310.65 425646003#0 425646003#0.15 6465162#0 6465162#0.2 6465162#0.6 6465162#0.11 6465162#0.36 428233434 428233434.31 428233434.58 -739874554#2 -739874554#2.15 -739874554#2.40 -739874554#2.60 -739874554#2.67 622519661 622519661.8 347092914#0 347092914#0.10 347092914#0.14 347092914#0.24 347092914#0.54 347092914#0.75 347092914#0.87 893872038 893872038.9 893872038.14 893872038.97 893872038.123 893872038.129 893872038.134 347092915#0 347092915#0.8 347092915#0.32 347092915#0.44 347092915#0.89 347092915#0.182 347092915#6 347092915#6.6 347092915#6.44 347092915#6.87 6465130#7 6465130#7.8 6465130#7.44 6465130#7.70 6465130#7.74 22760519#3 22760519#3.9 22760519#3.21 22760519#3.33 22760519#3.91 965874292#0 965874292#0.8 965874292#0.88 965874292#3 965874292#3.1 965874292#3.48 965874292#3.59 965874292#3.86 965874292#7 965874292#7.8 965874292#7.41 965874292#10 965874292#10.35 965874292#12 965874292#12.8 965874292#12.69 158123767#0 158123767#0.10 158123767#0.11 158123767#0.50 158123767#0.74 158123767#0.86 158123767#0.115 158123767#0.122 158123767#0.134 158123767#0.139 158123767#0.166 795669781 795669781.52 795669781.56 460421481#1 460421481#1.61 460421481#1.85 -428247194#1 -428247194#1.9 -428247194#1.28 -157167355#3 -157167355#3.5 -157167355#3.43 -157167355#0"/>
</vehicle>
<vehicle id = "veh20" type= "veh_passenger" depart="18025" >
<route edges =" -813722269#3 -813722269#3.7 -813722269#3.48 -813722269#3.84 -813722269#3.86 -569505976#2 -569505976#2.9 -569505976#2.88 -569505976#2.115 -569505976#2.119 428246438#0 428246438#0.8 428246440#0 428246440#0.62 800744530#0 800744530#0.11 800744530#0.45 800744530#0.57 800744530#0.111 800744530#0.121 57883609#0 57883609#0.6 57883609#0.57 57883609#3 57883609#3.43 57883609#3.52 57883609#3.60 57883609#3.80 -8071898#3 6343949#8 6343949#8.52 6343949#10 6343949#10.49 -6440348#10 -6440348#10.4 -6440348#10.6 -6440348#10.48 -6440348#10.83 -6440348#7 -6440348#7.9 243349944#0 243349944#0.4 243349944#0.20 243349944#0.49 243349944#4 243349944#4.53 243349944#6 243349944#7 243349944#8 243349944#9 243349944#10 243349944#10.7 243349944#10.84 243349944#13 243349944#13.47 243349944#13.51 243349944#15 243349944#15.48 -185485132#9 -185485132#8 -185485132#8.81 256994205#2 256994205#2.24 256994205#2.72 256994205#3 428246847#0 428246847#0.8 428246847#0.22 6386110#0 6386110#0.16 6386110#0.25 6386110#0.55 -243349338#6 -243349338#6.14"/>
</vehicle>
<vehicle id = "veh21" type= "veh_passenger" depart="18025" >
<route edges =" -816616074#1 -816616074#1.10 -816616074#1.14 -816616074#1.119 428341734#4 428341734#4.8 428246439#0 428246439#0.14 -569505978#1 -569505978#1.10 -569505979 -569505979.32 -569505979.79 -395714916#1 -395714916#1.12 -568043367 -568043367.41 -568043367.79 893866065#0 893866065#0.10 893866065#0.66 893866065#0.92 893866065#3 893866065#3.6 893866065#3.48 893866065#3.88 353690148#7 353690148#7.6 353690148#7.111 353690148#7.136 353690148#7.137 353690148#7.139 353690148#7.142 6476313#0 6476313#0.3 6476313#0.6 6476313#0.10 6476313#0.11 6476313#0.80 6476313#0.98 349901821 825336588#0 825336588#0.7 96029553#0 96029553#0.9 96029553#0.15 96029553#0.59 8071900#0 8071900#0.7 8071900#0.18 8071900#0.88 -22917111#26 -22917111#26.7 -22917111#26.41 -22917111#26.121 -22917111#22 -22917111#22.9 -22917111#22.144 293775902#4 293775902#4.6 293775902#4.49 293775902#4.88 -6440371#8 -6440371#8.7 -6440371#8.122 -6440371#8.124 -6440371#8.125 6464138#8 6464138#8.7 6464138#8.49 6464138#8.88 6464138#12 6464138#12.51 6464138#14 -481291488#1 6464126#0 6464126#0.46 6464126#0.49 6464126#3 6464126#3.49 6464126#5 6464126#6 6464126#7 6464126#7.50 6464126#9 6464126#9.46 6464126#11 6464126#11.50 6494975#2 243349338#5"/>
</vehicle>
<vehicle id = "veh22" type= "veh_passenger" depart="18025" >
<route edges =" 817434294 817434294.10 817434294.36 817434294.44 817434294.63 817434294.119 6343949#0 6343949#0.7 6343949#0.86 6343949#3 6343949#3.9 6343949#3.49 -620762212#2 -620762212#2.76 -620762212#2.120 -800744530#5 -800744530#5.9 -800744530#5.19 -800744530#5.73 -800744530#5.84 -800744530#5.118 -800744528#1 -800744528#1.8 -800744528#1.16 -800744528#1.37 -800744528#1.72 -337673339 -337673337 185882764 185882764.13 185882764.14 185882765 185882765.16 185882765.26 185882765.30 185882765.31 -243338979#28 -243338979#28.13 -243338979#28.49 -243338979#28.142 -243338979#28.143 -243338979#25 -243338979#25.8 -243338979#25.64 -243338979#25.77 -243338979#25.120 -243338979#20 -243338979#20.7 -243338979#20.121 353690157#0 353690157#0.5 353690157#0.19 353690157#0.47 353690157#0.72 353690157#0.87 893866056#0 893866056#0.8 893866056#0.64 893866056#0.88 353690154#0 353690154#0.7 353690154#0.49 353690154#0.90 353690154#4 353690154#4.6 353690154#4.49 353690154#4.54 353690154#4.87 353690154#8 353690154#8.7 353690154#8.42 353690154#8.50 353690154#8.92 353690154#12 353690154#12.6 353690154#12.32 353690154#15 353690154#15.50 -6447971#10 -6447971#10.11 -6447971#9 6425689#0 6425689#0.48 460419007#1 460419007#1.26 460419013#0 460419013#0.51 481291014#0 481291014#0.53 460419024#0 460419024#0.9 460419024#0.19 460419024#0.34 460419024#0.53 460419024#0.102 460419024#5 460419024#5.50 460419024#5.63 460419024#5.69 6516509#0 6516509#0.7 6516509#0.30 6516509#0.46 6516509#0.66 6516509#0.90 6516509#0.105 6516509#0.109 -6463536#1 -6463536#1.10 -6463536#1.11 -6463536#1.22 -6463536#1.32 -6463536#1.39 -6463536#1.43 -6463536#1.50 -6463536#1.60 -6463536#1.69 -6463532#3 -6463532#3.45 -6515975#7 6467507#6 6467507#6.51 6467507#8 6467507#8.87 6516509#8 6516509#8.7 6516509#8.85 6507809#10 6507809#10.8 6507809#10.91 6507809#13 6507809#13.9 6507809#13.77 -6452520#5 -6452520#5.4 -6452520#5.85 169917351#19 169917351#19.6 169917351#19.71 -6523501#2 -6523501#2.5 -6523501#2.101 6497081#0 6497081#0.8 6497081#2 6497081#2.38 6497081#2.47 6497081#2.53 6497081#2.60 6497081#2.67 6497081#2.70 6497081#2.74 6497081#2.81 6497081#2.120 -460421481#0 -460421481#0.36 -460421481#0.41 795669782#0 795669782#0.54 -6414318#0 -6414318#0.76 -6414318#0.81 460418987#0 460418987#0.4 460418987#0.8 -6414273#1 -6414273#1.22 -460418992#4 -460418992#4.6 -460418992#4.125 -460418992#2 -460418992#2.50 -460418992#2.92 460418994#0 460418994#0.9 460418994#0.44 460418994#0.71 460418978#0 460418978#0.8 460418978#0.76 460418978#3 460418978#3.9 460418978#3.49 369455641#1 369455641#1.28 369455641#1.78 512126022#0 512126022#0.11 512126022#0.46 -185483738#3 -185483738#3.11 -185483738#3.19 -185483738#2 -185483738#2.93 -6371720#5 -6371720#5.41 157167355#0"/>
</vehicle>
<vehicle id = "veh23" type= "veh_passenger" depart="18025" >
<route edges =" -814326475#2 -814326475#2.9 -814326475#2.24 -814326475#2.41 -814326475#2.70 -814326475#2.91 -6456052#5 -6456052#5.10 -6456052#5.36 -6456052#5.120 -6456052#1 -6456052#1.10 -6456052#1.62 -607691082#1 -607691082#0 -6475815#3 -6475815#3.2 -6475815#3.17 -6475815#3.46 -428089348#3 -428089348#3.15 -428089348#3.21 -428089348#3.28 -353690151#5 -353690151#5.11 -353690151#5.12 -353690151#5.26 -353690151#5.83 -353690151#5.102 -353690151#2 -353690151#2.9 -353690151#2.22 -353690151#2.24 -353690151#2.39 -353690151#2.72 -353690151#2.92 -433500388#1 -433500388#1.11 -433500388#1.46 -433500388#1.73 -433500388#1.113 -433500388#1.115 -428088900#1 -428088900#1.10 -428088894#1 -428088894#1.25 -428088883#1 -428088883#1.15 -428088897 -428088888 -737711647 -332223490#1 -332223490#1.19 -465971498#3 -465971498#3.2 -465971498#3.3 -465971498#3.5 -465971498#3.7 -465971498#3.10 -465971498#3.34 -465971498#3.84 369877037#0 369877037#0.9 369877037#0.83 537686684#0 537686684#0.43 537686684#0.53 -332223489#3 -332223489#3.4 -332223489#3.15 -332223489#3.17 -332223489#3.21 -401497115 -401497115.113 -401497115.170 -401497115.214 -428233435 -460425668 -460425668.5 425646007#0 425646007#0.10 425646007#0.17 425646007#0.20 425646007#0.22 425646007#0.27 425646003#0 425646003#0.15 6465162#0 6465162#0.2 6465162#0.6 6465162#0.11 6465162#0.36 428233434 428233434.31 428233434.58 332223487#0 332223487#0.16 332223487#0.62 332223487#0.98 332223488 332223488.25 332223488.48 332223488.65 332223488.68 332223488.88 347092907#0 347092907#0.3 347092907#0.13 347092907#0.19 347092907#0.26 347092907#0.31 347092907#0.38 347092907#0.40 347092907#0.45 347092907#0.51 332223494#0 332223494#0.18 332223494#0.35 332223494#0.144 332223494#0.171 22760519#0 22760519#0.7 22760519#0.27 22760519#3 22760519#3.9 22760519#3.21 22760519#3.33 22760519#3.91 965874292#0 965874292#0.8 965874292#0.88 -22917664#2 -22917664#2.11 -22917664#2.76 881403607#0 881403607#0.25 881403607#0.42 881403608#3 881403608#3.2 881403608#3.5 881403608#3.8 881403608#3.11 976099002#0 976099002#0.34 976099002#0.40 976099002#0.64 965874292#7 965874292#7.8 965874292#7.41 965874292#10 965874292#10.35 965874292#12 965874292#12.8 965874292#12.69 158123767#0 158123767#0.10 158123767#0.11 158123767#0.50 158123767#0.74 158123767#0.86 158123767#0.115 158123767#0.122 158123767#0.134 158123767#0.139 158123767#0.166 795669781 795669781.52 795669781.56 6497081#6 6497081#6.44 6414318#3 -157167355#0"/>
</vehicle>
<vehicle id = "veh24" type= "veh_passenger" depart="21630" >
<route edges =" -813722269#3 -813722269#3.7 -813722269#3.48 -813722269#3.84 -813722269#3.86 569505974#0 569505974#0.10 569505974#0.37 816616073#0 816616073#0.78 -6343949#2 -6343949#2.11 -6343949#2.90 816616072#4 816616072#4.7 816616072#4.62 816616072#4.121 6430729#0 6430729#0.7 6430729#0.86 813722270#5 813722270#5.7 813722270#5.118 6411908#0 6411908#1 6411908#1.103 6411908#1.111 171739214#14 -160552467#5 -160552467#5.18 -160552467#5.25 -160552467#5.30 -160552467#5.63 -160552467#5.85 -160552467#0 171739207#2 171739207#2.46 171739207#4 171739207#4.40 171739207#4.43 171739207#4.47 171739207#4.50 171739207#4.52 171739207#4.54 171739207#4.77 171739207#4.80 171739207#4.82 171739207#4.85 171739207#4.87 171739207#4.90 171739207#4.113 292812445#0 292812445#0.35 292812445#0.50 -65588093#3 6430729#13 6430729#13.48 6440348#14 292812445#5 292812445#5.45 6513783#0 962517344 962517344.33 -6381494#0 -620762224#1 -620762224#0 343521145#0 343521145#0.47 343521145#0.69 337739267#0 337739267#1 337739271#0 337739271#0.10 337739271#0.13 337739271#1 337739271#1.6 337739269#0 337739269#1 337739269#1.30 481291013#0 481291013#0.16 481291013#0.30 481291013#0.70 481291013#0.75 481291013#0.79 481291013#0.109 481291013#0.113 737709039#0 737709039#0.8 737709039#0.14 737709039#2 737709039#2.53 737709039#2.59 338701493#0 338701493#0.9 -92170540#0 -92170540#0.2 -460399791#2 -460399791#2.15 -460399791#2.17 -460399791#2.82 -460399791#2.105 465799093#0 465799093#0.8 465799093#0.46 465799093#0.91 337818330 428315592#0 428315592#0.12 428315592#0.53 428315592#0.95 -6448612#3 -6448612#3.16 -6448612#1 -6448612#1.133 -805680044#4 -805680044#4.8 -805680044#4.49 -805680044#4.92 -6360256#15 -6360256#15.7 -6360256#15.133 -6360256#13 -6360256#13.8 -6360256#13.10 -6360256#13.19 -6360256#13.61 -6360256#13.76 -6360256#13.125 243349945#3 243349945#3.5 243349945#3.45 243349945#3.49 -22917113#6 -22917113#5 6447445#5 6447445#5.47 6447445#7 6447445#7.46 -6494975#6 -6494975#6.81 256994205#3 428246847#0 428246847#0.8 428246847#0.22 6386110#0 6386110#0.16 6386110#0.25 6386110#0.55 -243349338#6 -243349338#6.14"/>
</vehicle>
<vehicle id = "veh25" type= "veh_passenger" depart="21630" >
<route edges =" -816616074#1 -816616074#1.10 -816616074#1.14 -816616074#1.119 428341734#4 428341734#4.8 428246439#0 428246439#0.14 428246438#0 428246438#0.8 428246440#0 428246440#0.62 800744530#0 800744530#0.11 800744530#0.45 800744530#0.57 800744530#0.111 800744530#0.121 57883609#0 57883609#0.6 57883609#0.57 65588100#0 65588100#0.63 6343949#7 8071898#3 620762214 -349901822#3 -349901822#3.58 96029553#0 96029553#0.9 96029553#0.15 96029553#0.59 -893866066#2 -893866066#2.7 -893866066#2.122 32135548#0 32135548#0.6 32135548#0.48 32135548#0.53 32135548#0.64 32135548#0.89 32135548#0.90 32135548#5 32135548#5.7 32135548#5.49 32135548#5.88 32135548#9 32135548#9.7 32135548#9.47 32135548#9.63 32135548#9.78 -6512920#11 -6512920#11.12 -6512920#11.49 -6512920#11.62 -6512920#11.76 -6512920#11.147 -6512920#7 -6512920#7.4 -6512920#7.122 -6512920#7.124 -6512920#5 -6512920#5.6 -6512920#5.9 -6512920#5.119 -6512920#5.124 353690154#12 353690154#12.6 353690154#12.32 6481166#10 6481166#10.9 6481166#10.121 6481166#10.123 6464138#14 -481291488#1 -481291488#0 -481291488#0.69 -481291488#0.82 243339793#0 243339793#0.48 243339793#2 243339793#2.49 243339793#4 243339793#5 -6360256#0 -6360256#0.8 486875123#0 486875123#0.56 486875123#0.88 481291012#0 481291012#0.24 481291012#0.32 185485132#2 185485132#2.104 185485132#3 185485132#3.10 185485132#4 243349338#3 243349338#3.49 243349338#5"/>
</vehicle>
<vehicle id = "veh26" type= "veh_passenger" depart="21630" >
<route edges =" 817434294 817434294.10 817434294.36 817434294.44 817434294.63 817434294.119 6343949#0 6343949#0.7 6343949#0.86 -816616073#1 -816616073#1.7 -569505974#1 -569505974#1.6 -569505974#1.33 620762213#0 620762213#0.9 620762213#0.88 -800744530#5 -800744530#5.9 -800744530#5.19 -800744530#5.73 -800744530#5.84 -800744530#5.118 -800744528#1 -800744528#1.8 -800744528#1.16 -800744528#1.37 -800744528#1.72 -337673339 -337673337 -337673338#1 -337673338#1.9 -395714916#1 -395714916#1.12 -568043367 -568043367.41 -568043367.79 893866065#0 893866065#0.10 893866065#0.66 893866065#0.92 -243338979#25 -243338979#25.8 -243338979#25.64 -243338979#25.77 -243338979#25.120 -243338979#20 -243338979#20.7 -243338979#20.121 353690157#0 353690157#0.5 353690157#0.19 353690157#0.47 353690157#0.72 353690157#0.87 -353690147#3 -353690147#3.7 -353690147#3.110 -353690147#3.122 353690152#0 353690152#0.9 353690152#0.90 -353690149#3 -353690149#3.9 -353690149#3.73 -353690149#3.196 -486844942#6 -486844942#6.9 -486844942#6.25 -486844942#6.67 -486844942#6.92 -486844942#3 -486844942#3.8 -486844942#3.80 -486844942#3.90 -243338979#3 -243338979#3.10 -243338979#3.38 -243338979#3.51 -243338979#3.65 6376376#4 6376376#4.5 6376376#4.86 -6476327#11 893868547#0 893868547#0.8 893868547#0.91 876005346#0 876005346#0.6 876005346#0.88 876005346#3 876005346#4 876005346#4.5 876005346#4.68 -6440364#9 -6440364#9.7 -6440364#9.83 901474739#7 901474739#7.8 901474739#7.82 6507809#0 6507809#0.7 6507809#0.88 6481166#5 6467507#3 6467507#4 6467507#4.48 -6515975#6 6507809#5 6507809#5.51 -6380913#4 -6380913#3 -6380913#3.7 -6380913#3.66 -6380913#3.103 256996975#0 256996975#0.50 256996975#0.62 256996975#0.65 256996975#0.91 256996976#0 256996976#0.11 256996976#0.20 256996976#0.46 256996976#0.79 256996976#3 256996976#3.7 256996976#3.76 460421482#0 460421482#0.8 460421482#0.73 6497081#0 6497081#0.8 6497081#2 6497081#2.38 6497081#2.47 6497081#2.53 6497081#2.60 6497081#2.67 6497081#2.70 6497081#2.74 6497081#2.81 6497081#2.120 6497081#6 6497081#6.44 -6414318#2 -6414318#2.8 795669782#2 6371720#2 6371720#3 157167355#0"/>
</vehicle>
<vehicle id = "veh27" type= "veh_passenger" depart="21630" >
<route edges =" -814326475#2 -814326475#2.9 -814326475#2.24 -814326475#2.41 -814326475#2.70 -814326475#2.91 -723013181#2 -723013181#2.9 -723013181#2.18 -723013181#2.38 -723013181#0 -332601014#3 -332601014#3.31 -332601014#3.36 -332601014#3.42 -428246436#1 -428246436#1.13 -428246436#1.22 -428246436#1.37 -808907363#3 -808907363#3.25 -808907363#3.35 -808907363#3.48 -808907363#3.53 -808907363#3.61 -797328240#3 -797328240#3.13 -797328240#3.26 -797328240#3.65 -797328240#3.93 -797328240#3.115 -337673342#5 -337673342#5.3 -337673342#5.9 -337673342#5.13 -337673342#5.21 -337673342#5.35 -337673342#5.72 -607691082#1 6501701#2 6501701#2.50 6501701#2.60 -6475815#4 -6475815#3 -6475815#3.2 -6475815#3.17 -6475815#3.46 -428089348#3 -428089348#3.15 -428089348#3.21 -428089348#3.28 -428341218#2 -428341218#2.3 -428341218#2.9 -65588069#1 -65588069#1.13 -428089351#1 -428089351#1.16 -293753570#2 -293753570#2.9 -293753570#2.83 293753571#0 293753571#0.5 293753571#0.20 293753571#0.24 -353690151#2 -353690151#2.9 -353690151#2.22 -353690151#2.24 -353690151#2.39 -353690151#2.72 -353690151#2.92 -433500388#1 -433500388#1.11 -433500388#1.46 -433500388#1.73 -433500388#1.113 -433500388#1.115 -369877024#7 -369877024#7.3 -369877024#7.5 -369877024#7.8 -369877024#7.10 -369877024#7.16 -369877024#7.21 -369877024#7.102 -749622503#2 -749622503#2.9 -749622503#2.29 -749622503#2.64 -749622503#2.84 532166310#0 532166310#0.43 532166310#0.52 -428088883#1 -428088883#1.15 -428088897 -428088888 -737711647 -332223490#1 -332223490#1.19 -428088887#1 -428088887#1.12 -428088892 -428088886#1 -428088886#1.24 -428088886#1.35 -428088886#1.45 -65588108#1 -65588108#1.18 -65588108#1.53 -332223489#3 -332223489#3.4 -332223489#3.15 -332223489#3.17 -332223489#3.21 -401497115 -401497115.113 -401497115.170 -401497115.214 -428233435 -460425668 -460425668.5 -6457806#2 -6457806#2.21 -6457806#2.25 -6457806#2.30 6476922#0 6476922#0.13 6476922#0.24 6476922#0.37 6476922#0.60 6476922#0.67 32121988#0 32121988#0.9 32121988#0.30 32121988#0.39 32121988#0.51 32121988#0.83 347092908 347092908.18 347092908.44 347092908.47 347092908.49 256996971#0 256996971#0.7 256996971#0.23 256996971#0.32 256996971#0.37 256996971#0.85 32135545#0 32135545#0.9 32135545#0.63 32135545#0.103 901477545#0 901477545#0.8 901477545#0.89 -6346769#4 -6346769#4.6 -6346769#4.27 -6346769#4.65 -6346769#4.102 6506833#0 6506833#0.9 6506833#0.37 6506833#0.54 6506833#0.84 22917663#11 22917663#11.6 22917663#11.23 22917663#11.87 6465130#3 6465130#3.8 6465130#3.46 6465130#3.84 6465130#7 6465130#7.8 6465130#7.44 6465130#7.70 6465130#7.74 22760519#3 22760519#3.9 22760519#3.21 22760519#3.33 22760519#3.91 965874293#0 965874293#0.9 965874293#0.40 49394452#8 49394452#8.8 49394452#8.188 -6388742#2 -6388742#2.30 -6388742#2.38 965874292#7 965874292#7.8 965874292#7.41 965874292#10 965874292#10.35 965874292#12 965874292#12.8 965874292#12.69 158123767#0 158123767#0.10 158123767#0.11 158123767#0.50 158123767#0.74 158123767#0.86 158123767#0.115 158123767#0.122 158123767#0.134 158123767#0.139 158123767#0.166 795669781 795669781.52 795669781.56 460421481#1 460421481#1.61 460421481#1.85 256997441#0 256997441#0.11 256997441#0.18 256997441#0.62 14374224#4 14374224#4.44 14374224#4.54 14374224#4.84 14374224#4.122 -6414318#4 -157167355#0"/>
</vehicle>
</routes>
