<?xml version="1.0" encoding="UTF-8"?>
<routes xmlns:xsi="http: // www.w3.org/2001/XMLSchema-instance" xsi:noNamespaceSchemaLocation="http: // sumo.dlr.de/xsd/routes_file.xsd">
<vType id="veh_passenger" vClass="passenger"/>

<vehicle id = "veh0" type= "veh_passenger" depart="0" >
<route edges =" -813722269#3 -813722269#3.7 -813722269#3.48 -813722269#3.84 -813722269#3.86 620762213#0 620762213#0.9 620762213#0.88 620762212#0 620762212#0.8 620762212#0.52 6343949#6 6343949#7 6343949#8 6343949#8.52 6343949#10 6343949#10.49 6343949#12 6343949#12.47 -525497324#3 -525497324#2 243349944#4 243349944#4.53 243349944#6 243349944#7 -460419011#3 -460419011#2 6464126#3 6464126#3.49 6464126#5 -460419028#3 243349338#0 243349338#0.18 243349338#1 243349338#2 243349338#3 243349338#3.49 243349338#5"/>
</vehicle>
<vehicle id = "veh1" type= "veh_passenger" depart="0" >
<route edges =" -6457203#16 -6457203#16.59 975126260#0 975126260#0.49 -6505136#16 6368504#5 6368504#5.48 6368504#7 6368504#7.50 -6513783#8 -6513783#7 37657905#3 37657905#3.48 37657905#5 37657905#5.10 37657905#5.46 37657905#7 37657905#7.49 476409329 -6383185#5 6384373#1 6384373#2 6384373#2.45 6384373#2.56 -65588097#1 -65588097#1.119 337818330 6463035#0 6463035#0.14 6463035#0.38 6463035#3 -6495801#0 -185485132#12 -185485132#12.125 -185485132#11 -185485132#11.16 243349945#9 243349945#9.50 -6494975#8 -6494975#7 -6494975#6 -6494975#6.81 256994205#3 428246847#0 428246847#0.8 428246847#0.22 6386110#0 6386110#0.16 6386110#0.25 6386110#0.55 -243349338#6 -243349338#6.14"/>
</vehicle>
<vehicle id = "veh2" type= "veh_passenger" depart="0" >
<route edges =" -6522868 -6403883#7 -6403883#6 -6403883#5 -6403883#4 -6403883#3 -6403883#2 158882505#7 158882505#8 8111709#0 8111709#0.47 8111709#2 8111709#2.49 8111709#4 8111709#4.49 -6513783#5 6384359#8 6384359#9 6384359#9.26 -6381494#3 -6381494#3.43 6463017#6 6463017#6.48 -6386837#0 337739268 337739268.124 337739267#0 337818462 337818462.3 337818462.6 337739271#1 337739271#1.6 337739269#0 -460419011#4 243349944#8 -801995081#5 -801995081#5.197 -801995081#5.209 -801995081#2 -801995081#2.109 -801995081#0 243339793#4 243339793#5 243339793#6 243339793#6.50 243339793#6.74 -22917112 -185485118#1 6514312#0 6514312#0.70 -6523501#6 -6523501#6.6 185485127#1 -6494970#4 -6494970#4.172 -6494970#2 -6494970#2.4 -6494970#2.100 6358721#0 6358721#0.9 6415147#4 6415147#5 6415147#6 6351349#2 6351349#3 6351349#3.107 6351349#5 -185483733 -6414318#4 -157167355#0"/>
</vehicle>
<vehicle id = "veh3" type= "veh_passenger" depart="0" >
<route edges =" 817434294 817434294.10 817434294.36 817434294.44 817434294.63 817434294.119 6343949#0 6343949#0.7 6343949#0.86 6343949#3 6343949#3.9 6343949#3.49 620762212#3 6430729#6 6430729#6.47 6430729#6.48 6430729#9 6430729#9.48 6430729#11 6430729#11.51 6430729#13 6430729#13.48 6430729#15 6430729#15.48 6430729#17 6430729#17.51 -620762224#0 -66558981#7 -66558981#7.65 -66558981#7.83 -66558981#7.105 -66558981#7.123 -66558981#2 -66558981#2.131 -66558981#2.234 525497323#2 525497323#2.81 -481291488#2 -481291488#1 -481291488#0 -481291488#0.69 -481291488#0.82 -6447971#10 -6447971#10.11 -6447971#9 -6447971#8 -6447971#7 -6447971#6 -6447971#5 -6447971#4 169917351#6 169917351#7 169917351#7.49 169917351#9 169917351#9.48 169917351#9.87 169917351#12 169917351#12.9 169917351#12.42 169917351#12.90 -6360239#3 -6360239#3.6 -6360239#3.69 -6360239#3.102 6487445#0 6487445#0.8 6415147#0 6415147#0.61 6449462#3 6449462#3.7 6449462#3.50 6449462#3.60 6449462#3.72 6449462#3.87 795669782#0 795669782#0.54 795669782#2 6371720#2 6371720#3 157167355#0"/>
</vehicle>
<vehicle id = "veh4" type= "veh_passenger" depart="3605" >
<route edges =" -816616074#1 -816616074#1.10 -816616074#1.14 -816616074#1.119 428341734#4 428341734#4.8 428246439#0 428246439#0.14 428246438#0 428246438#0.8 428246440#0 428246440#0.62 800744529#0 800744529#0.7 800744529#0.52 800744529#0.89 826314455#0 826314455#0.11 826314455#0.39 826314455#0.53 826314455#0.57 826314455#0.65 57883609#3 57883609#3.43 57883609#3.52 57883609#3.60 57883609#3.80 620762214 332092195#0 332092195#0.9 332092195#0.74 -22917111#30 -22917111#30.9 -22917111#30.50 -22917111#30.96 8071900#4 8071900#4.7 8071900#4.49 8071900#4.88 8071900#8 8071900#8.6 8071900#8.7 8071900#8.49 8071900#8.53 525497324#1 243349944#4 243349944#4.53 243349944#6 -481291488#4 -481291488#4.47 40416132#0 40416132#0.19 -460419011#2 6464126#3 6464126#3.49 6464126#5 6464126#6 6360256#2 6360256#2.128 243349338#1 243349338#2 243349338#3 243349338#3.49 243349338#5"/>
</vehicle>
<vehicle id = "veh5" type= "veh_passenger" depart="3605" >
<route edges =" 6457203#17 6457203#18 6457203#18.8 6457203#18.11 6457203#20 6457203#20.10 6457203#20.25 6457203#20.27 242516209#0 242516209#0.45 242516209#2 242516209#2.53 37657904 603522175 603522175.101 603522173#0 603522173#0.48 -6513783#9 -6513783#8 -170683231#20 -170683231#20.51 -170683231#18 -170683231#18.37 -170683231#18.49 -170683231#15 -170683231#15.34 -170683231#15.47 -170683231#15.61 -170683231#11 -170683231#11.43 6383185#7 476409332#2 476409332#2.43 -6460085#6 -6460085#6.27 -6460085#5 -6460085#5.109 -6460085#4 -6460085#4.20 -6460085#3 -6460085#3.55 -6384373#1 6383185#5 -476409329 476409328#0 476409328#0.201 476409328#2 476409328#2.118 8071925#0 8071925#0.9 8071925#0.55 8071925#2 8071925#2.36 8071925#2.74 465799093#0 465799093#0.8 465799093#0.46 465799093#0.91 65588097#0 65588097#0.9 6384373#5 6384373#5.40 6384373#5.50 6384373#5.90 -6448612#5 -6448612#5.30 -6448612#3 -6448612#3.16 6463035#3 6463035#4 6463035#4.46 6463035#4.48 -6356676#0 805680044#10 336908262#0 336908262#0.48 6349133#0 6463035#10 6463035#10.48 6463035#12 6463035#12.7 -6521828#3 -6521828#3.7 -6521828#3.107 -6521828#3.133 -359671039#10 -359671039#10.86 -359671039#8 -359671039#8.55 243349945#18 -532125609#2 -532125609#1 -6447445#15 -6447445#14 -6447445#13 -6447445#13.40 6472289#1 -243349944#22 -243349944#22.50 243349942#0 243349942#0.100 243349942#1 243349942#1.25 -805658294#3 -805658294#3.49 -6494975#9 -6494975#9.13 -6494975#9.24 -6494975#8 -6494975#7 -6494975#6 -6494975#6.81 256994205#3 428246847#0 428246847#0.8 428246847#0.22 6386110#0 6386110#0.16 6386110#0.25 6386110#0.55 -243349338#6 -243349338#6.14"/>
</vehicle>
<vehicle id = "veh6" type= "veh_passenger" depart="3605" >
<route edges =" -6457203#16 -6457203#16.59 -6323849#6 -6323849#6.43 -6403883#6 -6403883#5 -6403883#4 -158882511#7 -158882511#7.20 -158882511#7.33 -158882511#4 -158882511#3 -6346524#2 -6346524#1 -6346524#0 171739214#13 6411908#2 6411908#2.39 6411908#3 158882517#3 158882517#4 -6403883#2 158882505#7 158882505#8 8111709#0 8111709#0.47 -6505136#12 -6505136#12.73 -6505136#12.84 -6505136#12.102 -6505136#12.111 -6505136#12.122 6384359#4 6384359#4.13 6384359#4.31 6384359#4.51 6384359#6 6384359#6.48 6513783#5 6513783#6 37657905#3 37657905#3.48 -6381494#8 -6381494#8.122 -6381494#8.124 -6381494#6 -6381494#6.57 -6381494#6.77 -6381494#6.94 -6381494#3 -6381494#3.43 -6463017#5 -6513783#1 -6513783#1.10 962517344 962517344.33 -6381494#0 292812445#9 292812445#9.49 337739268 337739268.124 337739267#0 337818462 337818462.3 337818462.6 337739271#1 337739271#1.6 337739269#0 337739269#1 337739269#1.30 337739269#3 337739269#3.69 396055523#5 396055523#5.8 396055523#5.42 396055523#7 396055523#7.122 -243349944#9 -801995081#5 -801995081#5.197 -801995081#5.209 -801995081#2 -801995081#2.109 -801995081#0 -801995082 -6380913#14 -6425689#3 -6425689#3.44 460419007#1 460419007#1.26 460419011#0 460419011#0.101 -243339793#1 -243339793#1.46 -6447971#10 -6447971#10.11 -6447971#9 -6447971#8 263669069#1 263669069#1.41 263669069#1.48 263669069#1.70 -6515975#8 6463532#2 6463532#2.50 -6380913#7 -6380913#7.22 -6467507#7 -6467507#7.46 -6515975#6 6507809#5 6507809#5.51 6507809#7 6507809#7.46 6507809#7.87 -6516509#10 -6516509#10.6 -6516509#10.84 -6516509#7 -6516509#7.7 -6516509#7.24 -6516509#7.39 -6516509#7.43 -6516509#7.58 -6516509#7.85 -6516509#3 -6516509#3.4 -6516509#3.8 -6516509#3.23 -6516509#3.47 -6516509#3.67 -6516509#3.83 -6516509#3.106 -621319697#3 -621319697#3.10 -621319697#3.29 -621319697#3.34 -621319697#3.38 6380913#12 6425675 -460419024#4 -460419024#4.23 -460419024#4.72 -460419024#4.91 -460419024#4.105 -460419024#4.115 -460419028#7 -460419028#7.7 -460419028#7.33 -460419028#7.45 243339793#5 6360256#1 6360256#1.7 6464126#7 6464126#7.50 -22917113#1 -22917113#1.55 243339793#9 243339793#9.48 243339793#11 243339793#11.47 243339793#13 243339793#13.49 243339793#15 243339793#15.46 795671506#0 795671506#0.46 -6501822#8 -6501822#8.7 -6501822#7 -8071924#4 -8071924#3 -8071924#3.39 -8071924#3.51 -8071924#0 -8071924#0.15 428246846 428246846.12 428246846.24 428246846.37 926425193#0 926425193#0.8 926425193#0.43 926425193#0.84 926425193#0.95 926425193#1 926425193#1.12 926425193#1.24 926425193#1.34 -926425191#2 -6494970#6 -6494970#6.6 -6494970#4 -6494970#4.172 -6494970#2 -6494970#2.4 -6494970#2.100 6358721#0 6358721#0.9 6415147#4 428247193#3 428247193#3.27 486632638#0 486632638#0.14 486632638#0.27 -428247197#1 -428247197#1.9 -336908264#3 -336908264#2 -336908264#2.145 185485127#4 185485127#4.10 185485127#6 6472293#3 185485117#1 185485117#2 185485117#3 -6449970#4 -6463541#1 -6396312#1 -185485127#10 -6501822#2 -6501822#1 -6501822#0 -6501822#0.165 -256996977#7 -256996977#7.12 -256996977#7.47 6351349#0 6351349#0.4 6351349#0.39 6415147#7 6354836#1 6354836#1.40 6354836#3 256997441#8 256997441#8.82 6335280 6335280.16 6335280.119 6335280.125 -661086630#4 -661086630#4.5 -661086630#4.8 -661086630#4.25 -661086630#4.63 6354836#5 6354836#5.54 6354836#7 6354836#7.92 -6467368#3 -6467368#2 -6467368#0 -185483738#2 -185483738#2.93 -185483738#0 -6414318#4 -157167355#0"/>
</vehicle>
<vehicle id = "veh7" type= "veh_passenger" depart="3605" >
<route edges =" -813722269#3 -813722269#3.7 -813722269#3.48 -813722269#3.84 -813722269#3.86 620762213#0 620762213#0.9 620762213#0.88 620762212#0 620762212#0.8 620762212#0.52 -6343949#5 -6343949#5.49 -6343949#5.90 813722270#0 813722270#0.7 813722270#0.42 813722270#0.74 813722270#0.75 813722270#0.121 813722270#5 813722270#5.7 813722270#5.118 6411908#0 337668916#6 337668916#6.37 337668916#6.48 -160552467#0 171739207#2 171739207#2.46 171739207#4 171739207#4.40 171739207#4.43 171739207#4.47 171739207#4.50 171739207#4.52 171739207#4.54 171739207#4.77 171739207#4.80 171739207#4.82 171739207#4.85 171739207#4.87 171739207#4.90 171739207#4.113 8071898#0 8071898#0.8 8071898#0.10 8071898#0.26 8071898#0.40 6430729#11 6430729#11.51 6430729#13 6430729#13.48 -6440348#13 -6440348#13.56 -6440348#13.66 -6440348#13.122 -6440348#13.124 -6440348#10 -6440348#10.4 -6440348#10.6 -6440348#10.48 -6440348#10.83 -6440348#7 -6440348#7.9 243349944#0 243349944#0.4 243349944#0.20 243349944#0.49 -525497324#1 -525497324#0 -179552126 -179552126.19 -179552126.34 -179552126.50 -179552126.90 -6440371#11 -6440371#11.12 -6440371#11.144 -293775902#7 -293775902#7.10 -293775902#7.49 -293775902#7.92 -293775902#3 -293775902#3.10 -293775902#3.48 -293775902#3.93 -893866064#2 -893866064#2.7 -893866064#2.122 6464138#0 6464138#0.7 6464138#0.53 6464138#0.92 -22917111#16 -22917111#16.4 -22917111#16.5 -22917111#16.7 -22917111#16.120 -22917111#16.122 353690154#4 353690154#4.6 353690154#4.49 353690154#4.54 353690154#4.87 353690154#8 353690154#8.7 353690154#8.42 353690154#8.50 353690154#8.92 -6512920#3 -6512920#3.8 -6512920#3.9 -6512920#3.19 -6512920#3.59 -6512920#3.92 -901419468#4 -901419468#4.51 -901419468#4.132 -901419468#4.164 -901419468#4.186 -901419468#4.196 -901419468#4.197 -901419467#2 -901419467#2.9 -901419467#2.49 -901419467#2.54 -901419467#2.71 -901419467#2.91 -876005345#4 -876005345#4.10 -876005345#4.11 -876005345#4.20 -876005345#4.33 -876005345#4.199 -876005346#6 -876005346#6.6 -876005346#6.69 -22917110#5 -22917110#5.7 -22917110#5.84 -901474739#2 -901474739#2.10 -901474739#2.115 -893868550#2 -893868550#2.7 -893868550#2.86 -893868551#2 -893868551#2.8 -893868551#2.91 -6476327#3 -6476327#3.6 -6476327#3.45 -6476327#3.100 -6476327#3.105 256996971#0 256996971#0.7 256996971#0.23 256996971#0.32 256996971#0.37 256996971#0.85 256996974#0 256996974#0.8 256996974#0.88 256996974#3 256996974#3.6 256996974#3.29 256996974#3.56 256996974#3.86 6465130#0 6465130#0.8 6465130#0.84 22917663#15 22917663#15.9 22917663#15.45 22917663#15.80 -243338978#3 -243338978#3.21 -243338978#3.34 -243338978#3.83 256996974#11 256996974#11.6 256996974#11.33 256996974#11.65 256996972 256996972.16 256996972.70 6447971#0 6447971#0.49 6447971#0.72 6447971#0.81 169917351#6 169917351#7 169917351#7.49 169917351#9 169917351#9.48 169917351#9.87 169917351#12 169917351#12.9 169917351#12.42 169917351#12.90 169917351#16 169917351#16.9 169917351#16.77 169917351#19 169917351#19.6 169917351#19.71 -6523501#2 -6523501#2.5 -6523501#2.101 6497081#0 6497081#0.8 6497081#2 6497081#2.38 6497081#2.47 6497081#2.53 6497081#2.60 6497081#2.67 6497081#2.70 6497081#2.74 6497081#2.81 6497081#2.120 -460421481#0 -460421481#0.36 -460421481#0.41 795669782#0 795669782#0.54 6414318#1 6414318#1.86 6497081#8 6371720#3 157167355#0"/>
</vehicle>
<vehicle id = "veh8" type= "veh_passenger" depart="7210" >
<route edges =" -816616074#1 -816616074#1.10 -816616074#1.14 -816616074#1.119 428341734#4 428341734#4.8 428246439#0 428246439#0.14 -569505978#1 -569505978#1.10 -569505979 -569505979.32 -569505979.79 337673338#0 337673338#0.14 337673337 337673339 826314456#0 826314456#0.9 826314456#0.50 826314456#0.96 826314456#0.103 349901822#0 349901822#0.9 96029553#0 96029553#0.9 96029553#0.15 96029553#0.59 8071900#0 8071900#0.7 8071900#0.18 8071900#0.88 8071900#4 8071900#4.7 8071900#4.49 8071900#4.88 6440348#0 6440348#0.6 6440348#0.84 6440348#0.93 6440348#0.107 6440348#0.114 243349944#0 243349944#0.4 243349944#0.20 243349944#0.49 243349944#4 243349944#4.53 -66558981#2 -66558981#2.131 -66558981#2.234 525497323#2 525497323#2.81 40416132#0 40416132#0.19 -460419011#2 -460419011#1 -460419011#1.97 243339793#2 243339793#2.49 243339793#4 243339793#5 6360256#1 6360256#1.7 6464126#7 6464126#7.50 6464126#9 6464126#9.46 185485132#4 243349338#3 243349338#3.49 243349338#5"/>
</vehicle>
<vehicle id = "veh9" type= "veh_passenger" depart="7210" >
<route edges =" -6457203#16 -6457203#16.59 975126260#0 975126260#0.49 -6505136#16 -6505136#15 8111707#2 8111707#2.47 -603522174#1 6368504#7 6368504#7.50 -6513783#8 -170683231#20 -170683231#20.51 -170683231#18 -170683231#18.37 -170683231#18.49 336904472#5 336904472#5.77 6368504#15 6368504#15.40 6368504#15.46 6368504#15.67 476409332#0 476409332#0.44 -6383185#7 -170683231#9 -170683231#9.43 -170683231#7 -65588097#5 -65588097#5.172 -6464374 -6460085#3 -6460085#3.55 -6384373#1 -6383185#4 -6383185#4.120 8071925#2 8071925#2.36 8071925#2.74 460399791#0 460399791#0.9 460399791#0.31 460399791#0.97 460399791#0.99 -537678339#1 -537678339#1.11 338701493#0 338701493#0.9 243334881#0 243334881#0.7 243334881#0.57 243334881#0.96 6486416#0 6486416#0.9 6486416#0.116 460421484#0 460421484#0.12 428315592#0 428315592#0.12 428315592#0.53 428315592#0.95 -6448612#3 -6448612#3.16 6463035#3 -6495801#0 805680044#8 805680044#8.47 805680044#10 279467136#0 279467136#0.117 279467136#0.122 -6463035#7 6356676#1 170683665#3 170683665#3.38 279467136#2 279467136#2.29 279467136#2.52 40416130#0 40416130#1 6353867#1 6414237#1 6414237#2 6414237#2.7 6414237#2.43 6414237#2.81 -243352868#3 -243352868#3.6 40416130#6 -6369950#3 -170683665#13 -170683665#11 -170683665#11.54 -6353177#4 -6353177#3 -6353177#3.7 -6353177#3.98 -6353177#3.134 -160624558#4 -160624558#4.98 805658294#8 -359671039#8 -359671039#8.55 -359671039#6 243349944#26 243349944#27 -352434874#1 6447445#17 263665040#0 263665040#0.42 263665040#0.45 263665040#0.101 263665040#2 263665040#2.119 243349945#21 243349941#12 243349941#12.59 6512824 6512824.5 6512824.12 6512824.69 6512824.74 -6409640#13 -6409640#13.3 -6409640#13.7 -6409640#12 -6409640#11 -6447445#23 -6447445#23.8 -6447445#23.42 -243349941#8 878126486#0 878126486#0.41 878126486#0.73 878126486#0.75 -352434868 -352434868.9 -263665039 -263665039.32 -263665039.58 -263665039.72 532125609#0 -6447445#15 -6447445#14 -6447445#13 -6447445#13.40 6472289#1 -243349944#22 -243349944#22.50 -243349944#20 -243349944#20.50 -243349944#18 -243349944#18.47 -185485132#9 -6447445#6 -6447445#6.50 -22917113#4 -22917113#3 243349338#2 185485132#5 185485132#5.98 256994205#2 256994205#2.24 256994205#2.72 256994205#3 428246847#0 428246847#0.8 428246847#0.22 6386110#0 6386110#0.16 6386110#0.25 6386110#0.55 -243349338#6 -243349338#6.14"/>
</vehicle>
<vehicle id = "veh10" type= "veh_passenger" depart="7210" >
<route edges =" 6457203#17 -6428544#18 -6428544#18.43 -6428544#18.144 -6428544#15 -6428544#15.8 -6428544#13 -6428544#12 -6428544#12.50 -6428544#10 -6428544#10.8 -6428544#10.15 -6428544#10.34 -6428544#10.40 -6428544#10.45 -6428544#10.52 -6428544#6 -6428544#5 -8071381#1 -8071381#1.135 462701468 462701468.31 462701468.57 -6400858#1 -6400858#1.92 -6400858#1.135 -6400858#1.139 -6400858#1.143 -6400858#1.147 -8071380#1 -8071380#1.2 -8071380#1.5 -8071380#1.8 -8071380#1.11 -8071380#1.45 -8071380#1.57 -8071380#1.61 -8071894#4 -752851600#14 -752851600#14.33 -752851600#12 -752851600#12.41 -6414229#12 -6414229#11 6374789#11 6374789#11.72 -6346308#5 -6346308#5.48 -6346308#3 -6346308#3.49 6366765#5 6366765#5.118 6414229#4 6414229#4.5 6414229#4.47 6414229#4.88 -749754758#7 -749754758#7.3 -749754758#7.122 6464391#13 6464391#13.8 6464391#13.49 6464391#13.91 6366765#10 6366765#10.4 6366765#10.120 6384350#4 6384350#4.8 6384350#4.48 6384350#4.87 6384350#8 6384350#8.4 6384350#8.47 6384350#8.86 -6374789#5 -6374789#5.9 -6374789#5.118 -749754754#0 -749754754#0.11 -749754755 -749754755.11 -749754755.23 -749754755.34 -749754755.44 -749754755.57 -749754755.70 -749754755.72 -749754755.82 -749754755.92 -749754755.102 -621088608#1 -621088608#1.7 -621088608#1.12 -460421473#2 -460421473#2.33 -460421473#1 -460421473#1.60 -460421473#1.62 -460421473#1.67 395928755#0 395928755#0.62 -508340468#5 -508340468#5.10 -508340468#5.76 -508340468#2 -508340468#2.20 -508340468#2.58 -460423539#2 -460423539#2.8 -460423539#2.47 -460423539#2.71 6415868#0 6415868#0.47 6511393#7 6511393#8 6430733#3 6430733#3.48 6430733#5 6430733#5.62 6461453#17 6461453#17.40 6461453#17.73 6461453#17.80 6358498#0 6358498#0.53 742713664#0 742713664#0.9 742713664#0.19 742713664#0.21 548654006#0 548654006#0.8 548654006#0.16 548654006#0.24 548654006#0.54 331930455#0 331930455#0.9 331930455#0.42 331930455#0.49 331930455#0.60 331930455#0.86 623536799#0 623536799#0.9 623536799#0.30 623536799#0.39 623536799#0.58 623536799#0.61 623536799#0.92 6400834#0 6400834#0.8 6400834#0.121 65588084#0 65588084#0.8 65588084#0.88 158882495#0 158882495#0.6 6411908#0 6411908#1 6411908#1.103 6411908#1.111 171739214#14 -160552467#5 -160552467#5.18 -160552467#5.25 -160552467#5.30 -160552467#5.63 -160552467#5.85 337668916#8 337668916#8.47 -6403874#0 -65588100#6 -65588100#6.7 6430729#9 6430729#9.48 -8071898#1 -8071898#1.60 -8071898#1.73 -8071898#1.89 -8071898#1.91 292812445#0 292812445#0.35 292812445#0.50 6505136#0 6505136#0.18 6505136#0.27 6505136#0.73 6505136#0.87 6505136#0.118 6463017#0 6463017#0.48 6464042#2 6464042#2.9 6384359#6 6384359#6.48 6384359#8 6384359#9 6384359#9.26 -6381494#3 -6381494#3.43 -6381494#1 -6381494#0 -620762224#1 -620762224#0 343521145#0 343521145#0.47 343521145#0.69 337739267#0 337739267#1 -481291488#10 -481291488#10.44 -481291488#10.61 -481291488#10.85 -481291488#10.132 -481291488#10.142 243349944#7 243349944#8 243349944#9 -396055523#8 -396055523#8.8 243349945#0 243349945#0.6 243349945#0.83 -6360256#9 -6360256#9.6 -6360256#7 -6360256#7.5 -6360256#5 -396055524#1 -396055524#1.29 -396055524#1.40 -396055524#1.64 -396055524#1.86 460419028#0 460419028#0.11 460419028#0.49 460419028#0.79 460419028#0.95 243349338#0 243349338#0.18 243349338#1 -22917113#2 -6464126#8 -6464126#8.50 -6464126#6 460419028#4 460419028#5 460419028#5.67 460419028#5.79 460419028#5.105 353690153#0 353690153#0.8 353690153#0.25 353690153#0.87 486875123#0 486875123#0.56 486875123#0.88 481291012#0 481291012#0.24 481291012#0.32 481291012#2 481291012#2.49 481291012#5 481291012#5.49 481291012#7 481291012#7.20 8071924#0 8071924#0.13 8071924#1 8071924#1.18 8071924#1.30 6472293#6 6472293#6.106 795671506#0 795671506#0.46 6501822#9 6501822#9.6 6336174#0 6336174#0.42 6336174#2 6336174#2.43 6336174#4 6336174#5 -243349331#0 -243349331#0.131 -6348024#4 -6425683#1 -6425683#0 -6449970#5 -6449970#4 -6449970#3 -6449970#2 -185485127#11 -185485127#10 -185485127#9 -185485127#9.41 -185485127#9.47 6472293#3 -185485117#0 -185485117#0.47 -926425191#3 926425193#2 926425193#2.6 926425193#2.94 926425193#2.182 926425193#2.204 926425193#2.206 -185485127#3 -185485127#3.10 -185485127#1 -185485127#0 -6452520#7 -6452520#7.84 -6452520#5 -6452520#5.4 -6452520#5.85 169917351#19 169917351#19.6 169917351#19.71 169917351#22 169917351#22.7 169917351#22.72 -6494970#2 -6494970#2.4 -6494970#2.100 6358721#0 6358721#0.9 6415147#4 6415147#5 -6489809#1 -6489809#1.47 256996977#4 256996977#4.22 256996977#4.24 256996977#4.38 6351349#0 6351349#0.4 6351349#0.39 6351349#2 642753174 -6384264 -295783215#1 14374224#0 14374224#0.36 14374224#0.80 14374224#0.83 -256997441#2 -256997441#2.27 -256997441#2.71 -256997441#2.77 -428247194#1 -428247194#1.9 -428247194#1.28 -157167355#3 -157167355#3.5 -157167355#3.43 -157167355#0"/>
</vehicle>
<vehicle id = "veh11" type= "veh_passenger" depart="7210" >
<route edges =" -813722269#3 -813722269#3.7 -813722269#3.48 -813722269#3.84 -813722269#3.86 569505974#0 569505974#0.10 569505974#0.37 816616073#0 816616073#0.78 -6343949#2 -6343949#2.11 -6343949#2.90 816616072#4 816616072#4.7 816616072#4.62 816616072#4.121 6430729#0 6430729#0.7 6430729#0.86 6430729#3 6430729#3.9 6430729#3.48 -620762212#3 6343949#6 6343949#7 6343949#8 6343949#8.52 6343949#10 6343949#10.49 -6440348#10 -6440348#10.4 -6440348#10.6 -6440348#10.48 -6440348#10.83 -6440348#7 -6440348#7.9 -6440348#5 -6440348#5.15 -6440348#5.21 -6440348#5.35 -6440348#5.44 -6440348#5.122 8071900#8 8071900#8.6 8071900#8.7 8071900#8.49 8071900#8.53 -525497324#0 525497323#0 525497323#0.50 -6481166#12 -293775902#14 -293775902#14.49 -293775902#14.96 -6512920#7 -6512920#7.4 -6512920#7.122 -6512920#7.124 -6464138#11 -6464138#11.9 -6464138#11.48 -6464138#11.90 -6440371#5 -6440371#5.4 -6440371#5.6 -6440371#5.7 -6440371#5.119 -6440371#5.121 -6440371#2 -6440371#2.9 -6440371#2.11 -6440371#2.121 -6440371#2.122 -460419029#8 -460419029#8.7 -460419029#8.46 -460419029#8.90 -460419029#4 -460419029#4.8 -460419029#4.44 -460419029#4.46 -460419029#4.90 -353690152#2 -353690152#2.8 -353690152#2.89 -6476327#20 -6476327#20.8 -6476327#20.163 -6476327#20.182 -6476327#20.195 486844942#4 486844942#4.7 486844942#4.31 486844942#4.73 486844942#4.89 353690160#0 353690160#0.6 353690160#0.88 -22917111#2 -22917111#2.10 -22917111#2.197 -876005346#2 -876005346#2.9 -876005346#2.90 -893868548#2 -893868548#2.7 -893868548#2.85 -893868550#2 -893868550#2.7 -893868550#2.86 -32135545#3 -32135545#3.7 -32135545#3.47 -32135545#3.102 6458014#0 6458014#0.8 6458014#0.84 22917663#6 22917663#6.6 22917663#6.34 22917663#6.58 22917663#6.88 22917663#11 22917663#11.6 22917663#11.23 22917663#11.87 -6465130#2 -6465130#2.8 -6465130#2.84 256996974#6 256996974#6.9 256996974#6.21 256996974#6.40 256996974#6.89 901474740#0 901474740#0.9 901474740#0.50 901474740#0.58 901474740#0.104 169917351#0 169917351#0.8 169917351#0.53 169917351#0.88 169917351#4 169917351#4.51 6447971#4 6507809#4 6515975#6 6515975#7 6515975#8 460419008#0 460419008#0.50 -6380913#11 -6380913#11.53 -6380913#7 -6380913#7.22 -6380913#5 -6380913#4 -169917351#8 -169917351#8.49 -6515975#3 -6515975#3.6 -6515975#3.44 -6515975#3.102 256996973#0 256996973#0.33 256996973#0.45 256996973#0.49 6385341#0 6385341#0.19 6385341#0.20 6385341#0.34 6385341#0.47 6385341#0.50 6385341#0.54 6385341#0.58 6385341#0.73 6385341#0.78 6385341#0.81 6385341#0.84 6385341#0.87 6385341#0.126 6385341#0.138 6384260#2 6384260#3 6384260#3.54 -6487445#4 -6487445#4.15 -6487445#4.55 6415147#0 6415147#0.61 6449462#3 6449462#3.7 6449462#3.50 6449462#3.60 6449462#3.72 6449462#3.87 795669781 795669781.52 795669781.56 6497081#6 6497081#6.44 -6414318#2 -6414318#2.8 795669782#2 795669782#3 795846818#0 795846818#0.1 460418978#3 460418978#3.9 460418978#3.49 369455641#1 369455641#1.28 369455641#1.78 512126022#0 512126022#0.11 512126022#0.46 -185483738#3 -185483738#3.11 -185483738#3.19 6467368#0 6467368#2 6367253#0 6367253#0.7 6485999#3 6485999#3.70 -6354794#0 -6467368#4 -6354836#8 -6354836#8.7 -6354836#6 -6354836#6.92 -6354836#4 -256997441#7 -256997441#7.46 6351349#5 661086629#0 -6371720#6 -6371720#5 -6371720#5.41 157167355#0"/>
</vehicle>
<vehicle id = "veh12" type= "veh_passenger" depart="10815" >
<route edges =" -813722269#3 -813722269#3.7 -813722269#3.48 -813722269#3.84 -813722269#3.86 620762213#0 620762213#0.9 620762213#0.88 57883609#0 57883609#0.6 57883609#0.57 57883609#3 57883609#3.43 57883609#3.52 57883609#3.60 57883609#3.80 -8071898#3 -8071898#2 -8071898#1 -8071898#1.60 -8071898#1.73 -8071898#1.89 -8071898#1.91 292812446#0 292812446#0.15 292812446#0.27 292812446#0.70 292812446#0.83 292812446#0.91 292812446#0.121 292812446#5 8071899 6384359#0 6384359#0.22 6384359#0.45 6384359#0.50 -6505136#6 -6505136#6.18 6463017#0 6463017#0.48 -6464042#1 -6464042#1.52 292812445#5 292812445#5.45 -525497324#8 -525497324#7 -525497324#7.39 -525497324#7.54 -525497324#7.112 -525497324#3 620762218#5 620762218#5.18 620762218#5.80 -66558981#7 -66558981#7.65 -66558981#7.83 -66558981#7.105 -66558981#7.123 243349944#6 243349944#7 243349944#8 243349944#9 -396055523#8 -396055523#8.8 243349945#0 243349945#0.6 243349945#0.83 243349945#3 243349945#3.5 243349945#3.45 243349945#3.49 243349945#6 243349945#6.48 243349945#6.88 185485132#11 185485132#11.115 805658294#0 805658294#0.38 805658294#0.52 6494975#10 6494975#10.11 6494975#10.19 6356676#0 6356676#1 170683665#3 170683665#3.38 170683665#5 170683665#5.50 170683665#7 6353867#0 40416130#2 40416130#3 40416130#3.42 40416130#3.45 -243352868#1 -243352868#1.19 -6521828#4 -6463035#13 -6463035#13.80 -6353177#3 -6353177#3.7 -6353177#3.98 -6353177#3.134 -336908262#3 -336908262#3.49 -336908262#1 -336908262#1.48 -243349942#2 -243349942#1 -243349942#1.104 243349945#13 243349945#13.48 243349945#15 243349945#15.47 243349945#17 243349945#18 243349945#19 243349945#20 -263665040#2 -263665040#2.22 243349944#29 -243349941#10 -243349941#10.85 -6447445#20 -6447445#20.21 -6447445#20.41 -6447445#17 352434874#1 -243349944#27 -243349944#26 -243349944#25 -243349944#24 -243349944#24.50 -243349944#22 -243349944#22.50 -22760521#3 -22760521#2 -22760521#2.81 -22760521#2.121 428246847#0 428246847#0.8 428246847#0.22 6386110#0 6386110#0.16 6386110#0.25 6386110#0.55 -243349338#6 -243349338#6.14"/>
</vehicle>
<vehicle id = "veh13" type= "veh_passenger" depart="10815" >
<route edges =" -816616074#1 -816616074#1.10 -816616074#1.14 -816616074#1.119 428341734#4 428341734#4.8 428246439#0 428246439#0.14 428246438#0 428246438#0.8 428246440#0 428246440#0.62 800744529#0 800744529#0.7 800744529#0.52 800744529#0.89 -349901821 -6476313#2 -6476313#2.11 -6476313#2.29 -6476313#2.98 -6476313#2.99 -6476313#2.103 -6476313#2.107 164418944#4 164418944#4.7 164418944#4.8 164418944#4.29 164418944#4.51 164418944#4.95 32135548#0 32135548#0.6 32135548#0.48 32135548#0.53 32135548#0.64 32135548#0.89 32135548#0.90 32135548#5 32135548#5.7 32135548#5.49 32135548#5.88 32135548#9 32135548#9.7 32135548#9.47 32135548#9.63 32135548#9.78 -6512920#11 -6512920#11.12 -6512920#11.49 -6512920#11.62 -6512920#11.76 -6512920#11.147 293775902#12 293775902#12.3 293775902#12.50 -6481166#11 -6481166#11.122 -6481166#11.125 -6481166#10 -6481166#10.6 -6481166#10.8 -6481166#10.120 353690154#15 353690154#15.50 243339793#0 243339793#0.48 243339793#2 243339793#2.49 801995081#0 6464126#5 6464126#6 6464126#7 6464126#7.50 6464126#9 6464126#9.46 6464126#11 6464126#11.50 6494975#2 243349338#5"/>
</vehicle>
<vehicle id = "veh14" type= "veh_passenger" depart="10815" >
<route edges =" 817434294 817434294.10 817434294.36 817434294.44 817434294.63 817434294.119 816616072#4 816616072#4.7 816616072#4.62 816616072#4.121 816616072#8 816616072#8.6 816616072#8.121 158882495#0 158882495#0.6 171739207#0 171739207#0.49 171739207#2 171739207#2.46 6403874#0 337668916#10 6463027#0 6463027#0.20 6463027#0.21 6463027#0.23 6463027#0.25 6463027#0.26 6463027#0.28 6463027#0.31 6463027#0.33 6463027#0.35 6463027#0.37 6463027#0.39 6463027#0.76 -292812446#4 -292812446#4.6 -292812446#4.35 -292812446#4.44 -292812446#4.56 -292812446#4.99 -292812446#4.111 8071898#0 8071898#0.8 8071898#0.10 8071898#0.26 8071898#0.40 8071898#2 -6343949#7 65588100#2 65588100#2.20 65588100#2.57 -6430729#8 -6430729#8.48 -6430729#8.49 -620762212#3 -620762212#2 -620762212#2.76 -620762212#2.120 -800744530#5 -800744530#5.9 -800744530#5.19 -800744530#5.73 -800744530#5.84 -800744530#5.118 -800744528#1 -800744528#1.8 -800744528#1.16 -800744528#1.37 -800744528#1.72 -337673339 -337673337 185882764 185882764.13 185882764.14 185882765 185882765.16 185882765.26 185882765.30 185882765.31 -243338979#28 -243338979#28.13 -243338979#28.49 -243338979#28.142 -243338979#28.143 -243338979#25 -243338979#25.8 -243338979#25.64 -243338979#25.77 -243338979#25.120 893866060#4 893866060#4.6 893866060#4.48 893866060#4.89 893866060#8 893866060#8.7 893866060#8.65 893866060#8.89 6464138#0 6464138#0.7 6464138#0.53 6464138#0.92 6464138#4 6464138#4.6 6464138#4.51 6464138#4.88 6464138#8 6464138#8.7 6464138#8.49 6464138#8.88 -6512920#5 -6512920#5.6 -6512920#5.9 -6512920#5.119 -6512920#5.124 -353690154#11 -353690154#11.4 -353690154#11.46 -353690154#11.54 -353690154#11.89 -353690154#7 -353690154#7.9 -353690154#7.42 -353690154#7.47 -353690154#7.90 -22917111#13 -22917111#13.8 -22917111#13.10 -22917111#13.79 -22917111#13.80 -22917111#13.98 -22917111#13.123 -460419029#4 -460419029#4.8 -460419029#4.44 -460419029#4.46 -460419029#4.90 -353690149#3 -353690149#3.9 -353690149#3.73 -353690149#3.196 353690160#0 353690160#0.6 353690160#0.88 353690160#3 353690160#3.6 353690160#3.90 179552384#0 179552384#0.7 179552384#0.28 179552384#0.44 179552384#0.49 179552384#0.89 -512168130#2 -512168130#2.10 -512168130#2.12 -512168130#2.65 -512168130#2.197 6467507#0 6467507#0.7 6467507#0.88 6467507#3 -6447971#5 6507809#4 6507809#5 6507809#5.51 6507809#7 6507809#7.46 6507809#7.87 6516509#11 6516509#11.6 6516509#11.34 6516509#11.86 169917351#12 169917351#12.9 169917351#12.42 169917351#12.90 169917351#16 169917351#16.9 169917351#16.77 169917351#19 169917351#19.6 169917351#19.71 169917351#22 169917351#22.7 169917351#22.72 169917351#25 169917351#25.7 169917351#25.72 336908264#3 428247197#0 428247197#0.12 -460421482#10 -460421482#10.13 -460421482#10.46 -460421482#10.56 -460421482#10.76 6358721#0 6358721#0.9 6415147#4 -428247193#2 -428247193#2.56 -428247193#2.61 -428247193#2.96 -428247193#2.117 -428247193#2.121 -428247193#2.140 -428247193#2.154 -428247195 -428247195.5 256997441#0 256997441#0.11 256997441#0.18 256997441#0.62 256997441#3 256997441#3.6 256997441#3.53 6351349#5 -185483733 -6414318#4 -6414318#3 -6414318#2 -6414318#2.8 -6414318#0 -6414318#0.76 -6414318#0.81 460418987#0 460418987#0.4 460418987#0.8 460418987#1 460418987#2 460418987#3 460418987#3.91 -460418994#2 -460418994#2.8 -460418994#2.35 -460418994#2.70 -337742188#11 -337742188#11.8 -337742188#11.28 -337742188#11.102 -337742188#8 -337742188#8.6 -337742188#8.83 -337742188#8.106 -337742188#8.123 -337742188#8.140 -337742188#8.159 22917673#2 22917673#2.9 22917673#2.36 22917673#2.81 -22917667#4 -22917667#4.168 22917670#7 22917670#7.7 22917670#7.71 -795846818#4 -795846818#4.7 -795846818#4.95 -795846818#4.102 -795846818#1 -795846818#1.9 -795669782#3 6371720#2 6371720#3 157167355#0"/>
</vehicle>
<vehicle id = "veh15" type= "veh_passenger" depart="10815" >
<route edges =" -814326475#2 -814326475#2.9 -814326475#2.24 -814326475#2.41 -814326475#2.70 -814326475#2.91 -6456052#5 -6456052#5.10 -6456052#5.36 -6456052#5.120 -6456052#1 -6456052#1.10 -6456052#1.62 -607691082#1 -607691082#0 -6475815#3 -6475815#3.2 -6475815#3.17 -6475815#3.46 -428089348#3 -428089348#3.15 -428089348#3.21 -428089348#3.28 332223491#0 332223491#0.12 6438604#0 6438604#0.3 6438604#0.6 6438604#0.8 6438604#0.10 6438604#0.11 6438604#0.13 6438604#0.44 6438604#0.60 -22927969#14 -22927969#14.8 -22927969#14.47 -22927969#14.89 -293753570#5 -293753570#5.6 -293753570#5.37 -293753570#5.47 -293753570#5.60 -293753570#5.82 -428089352#1 -428089352#1.12 -428089350 -428089350.17 -428089350.43 -428227812#1 -428227812#1.9 -428227851#1 -428227851#1.5 -13726934#1 -13726934#1.5 -428227808 -428227847#1 -428227847#1.17 -749622503#15 -749622503#15.9 -749622503#15.31 -749622503#15.46 -749622503#15.51 -749622503#15.67 -749622503#15.85 -749622503#8 -749622503#8.7 -749622503#8.63 -749622503#8.83 -749622503#4 -749622503#4.84 -749622503#2 -749622503#2.9 -749622503#2.29 -749622503#2.64 -749622503#2.84 532166310#0 532166310#0.43 532166310#0.52 -428088883#1 -428088883#1.15 -428088897 -428088888 -737711647 -332223490#1 -332223490#1.19 -465971498#3 -465971498#3.2 -465971498#3.3 -465971498#3.5 -465971498#3.7 -465971498#3.10 -465971498#3.34 -465971498#3.84 369877037#0 369877037#0.9 369877037#0.83 537686684#0 537686684#0.43 537686684#0.53 -332223489#3 -332223489#3.4 -332223489#3.15 -332223489#3.17 -332223489#3.21 -401497115 -401497115.113 -401497115.170 -401497115.214 -428233435 -460425668 -460425668.5 -6457806#2 -6457806#2.21 -6457806#2.25 -6457806#2.30 6465162#0 6465162#0.2 6465162#0.6 6465162#0.11 6465162#0.36 428233434 428233434.31 428233434.58 332223487#0 332223487#0.16 332223487#0.62 332223487#0.98 893872038 893872038.9 893872038.14 893872038.97 893872038.123 893872038.129 893872038.134 347092915#0 347092915#0.8 347092915#0.32 347092915#0.44 347092915#0.89 347092915#0.182 347092915#6 347092915#6.6 347092915#6.44 347092915#6.87 347092915#10 347092915#10.9 347092915#10.68 347092915#10.90 243338978#7 243338978#7.8 243338978#7.38 243338978#7.45 243338978#7.74 965874292#0 965874292#0.8 965874292#0.88 -22917664#2 -22917664#2.11 -22917664#2.76 881403607#0 881403607#0.25 881403607#0.42 881403608#3 881403608#3.2 881403608#3.5 881403608#3.8 881403608#3.11 976099002#0 976099002#0.34 976099002#0.40 976099002#0.64 965874292#7 965874292#7.8 965874292#7.41 965874292#10 965874292#10.35 965874292#12 965874292#12.8 965874292#12.69 158123767#0 158123767#0.10 158123767#0.11 158123767#0.50 158123767#0.74 158123767#0.86 158123767#0.115 158123767#0.122 158123767#0.134 158123767#0.139 158123767#0.166 795669782#0 795669782#0.54 6414318#1 6414318#1.86 6414318#3 -157167355#0"/>
</vehicle>
<vehicle id = "veh16" type= "veh_passenger" depart="14420" >
<route edges =" -813722269#3 -813722269#3.7 -813722269#3.48 -813722269#3.84 -813722269#3.86 569505974#0 569505974#0.10 569505974#0.37 816616073#0 816616073#0.78 6343949#3 6343949#3.9 6343949#3.49 620762212#3 620762212#4 620762212#4.122 160552467#0 337668916#8 337668916#8.47 6403874#1 6403874#1.38 171739214#20 171739214#21 171739214#21.8 171739214#21.28 171739214#21.32 6457203#1 6457203#1.8 6457203#1.16 6457203#1.38 6457203#1.55 8111709#0 8111709#0.47 8111709#2 8111709#2.49 -6464042#7 -6464042#7.121 -6464042#7.127 -6464042#7.144 -6464042#7.161 6384359#6 6384359#6.48 -6513783#4 -6513783#4.21 -6513783#4.23 -6513783#4.43 -6513783#4.80 -6513783#1 -6513783#1.10 -6513783#0 292812445#7 292812445#7.46 6381494#0 6381494#1 6463017#6 6463017#6.48 -6386837#0 337739268 337739268.124 337739267#0 337739267#1 -481291488#10 -481291488#10.44 -481291488#10.61 -481291488#10.85 -481291488#10.132 -481291488#10.142 243349944#7 460419011#4 337739269#1 337739269#1.30 337739269#3 337739269#3.69 396055523#5 396055523#5.8 396055523#5.42 243349945#0 243349945#0.6 243349945#0.83 243349945#3 243349945#3.5 243349945#3.45 243349945#3.49 243349945#6 243349945#6.48 243349945#6.88 243349945#9 243349945#9.50 -6494975#8 -6494975#7 -6494975#6 -6494975#6.81 256994205#3 428246847#0 428246847#0.8 428246847#0.22 6386110#0 6386110#0.16 6386110#0.25 6386110#0.55 -243349338#6 -243349338#6.14"/>
</vehicle>
<vehicle id = "veh17" type= "veh_passenger" depart="14420" >
<route edges =" -816616074#1 -816616074#1.10 -816616074#1.14 -816616074#1.119 428341734#4 428341734#4.8 428246439#0 428246439#0.14 428246438#0 428246438#0.8 428246440#0 428246440#0.62 -800744528#1 -800744528#1.8 -800744528#1.16 -800744528#1.37 -800744528#1.72 826314456#0 826314456#0.9 826314456#0.50 826314456#0.96 826314456#0.103 -6476313#2 -6476313#2.11 -6476313#2.29 -6476313#2.98 -6476313#2.99 -6476313#2.103 -6476313#2.107 164418944#4 164418944#4.7 164418944#4.8 164418944#4.29 164418944#4.51 164418944#4.95 -353690150#2 -353690150#2.8 -353690150#2.144 -893866064#2 -893866064#2.7 -893866064#2.122 -893866059#2 -893866059#2.7 -893866059#2.120 -893866059#2.121 353690154#0 353690154#0.7 353690154#0.49 353690154#0.90 22917111#14 22917111#14.7 22917111#14.9 22917111#14.122 22917111#14.123 22917111#14.125 6464138#4 6464138#4.6 6464138#4.51 6464138#4.88 6464138#8 6464138#8.7 6464138#8.49 6464138#8.88 6464138#12 6464138#12.51 6464138#14 -481291488#1 6464126#0 6464126#0.46 6464126#0.49 -460419011#1 -460419011#1.97 -460419011#0 -460419011#0.11 460419013#0 460419013#0.51 481291014#0 481291014#0.53 353690153#0 353690153#0.8 353690153#0.25 353690153#0.87 486875123#0 486875123#0.56 486875123#0.88 481291012#0 481291012#0.24 481291012#0.32 481291012#2 481291012#2.49 6494975#0 6494975#0.105 243339793#13 243339793#13.49 -6386110#4 -6386110#4.86 -6464126#14 -6464126#14.50 6494975#2 243349338#5"/>
</vehicle>
<vehicle id = "veh18" type= "veh_passenger" depart="14420" >
<route edges =" 817434294 817434294.10 817434294.36 817434294.44 817434294.63 817434294.119 6343949#0 6343949#0.7 6343949#0.86 -816616073#1 -816616073#1.7 -569505974#1 -569505974#1.6 -569505974#1.33 -569505976#2 -569505976#2.9 -569505976#2.88 -569505976#2.115 -569505976#2.119 -569505978#1 -569505978#1.10 -569505979 -569505979.32 -569505979.79 -395714916#1 -395714916#1.12 -568043367 -568043367.41 -568043367.79 -293775903#2 -293775903#2.10 -293775903#2.37 -293775903#2.89 -293775903#2.118 -475161306#1 -475161306#1.9 -475161306#1.92 -475161306#1.120 353690155#0 353690155#0.10 353690155#0.51 353690155#0.58 353690155#0.90 353690157#0 353690157#0.5 353690157#0.19 353690157#0.47 353690157#0.72 353690157#0.87 893866056#0 893866056#0.8 893866056#0.64 893866056#0.88 -893866057 -893866057.8 -893866057.9 -893866057.122 460419029#0 460419029#0.7 460419029#0.51 460419029#0.53 460419029#0.89 460419029#5 460419029#5.8 460419029#5.52 460419029#5.91 460419029#9 460419029#9.7 460419029#9.45 486874837#0 486874837#1 486874837#2 486874837#2.47 -460419014 -460419014.67 -460419007#0 -460419007#0.17 -460419007#0.46 -263669069#2 -263669069#2.25 -263669069#2.47 -263669069#2.55 -263669069#0 -6481166#6 -6481166#5 6507809#3 6507809#4 -6515975#5 -6515975#5.48 169917351#7 169917351#7.49 -6380913#3 -6380913#3.7 -6380913#3.66 -6380913#3.103 256996975#0 256996975#0.50 256996975#0.62 256996975#0.65 256996975#0.91 256996976#0 256996976#0.11 256996976#0.20 256996976#0.46 256996976#0.79 256996976#3 256996976#3.7 256996976#3.76 6449462#0 6449462#0.9 6449462#0.46 6449462#3 6449462#3.7 6449462#3.50 6449462#3.60 6449462#3.72 6449462#3.87 795669782#0 795669782#0.54 795669782#2 6371720#2 6497081#9 6497081#9.126 369455641#1 369455641#1.28 369455641#1.78 512126021#0 512126021#0.7 512126021#0.31 512126021#0.66 157167355#0"/>
</vehicle>
<vehicle id = "veh19" type= "veh_passenger" depart="14420" >
<route edges =" -814326475#2 -814326475#2.9 -814326475#2.24 -814326475#2.41 -814326475#2.70 -814326475#2.91 -6456052#5 -6456052#5.10 -6456052#5.36 -6456052#5.120 -6456052#1 -6456052#1.10 -6456052#1.62 -607691082#1 -607691082#0 -6475815#3 -6475815#3.2 -6475815#3.17 -6475815#3.46 -428089348#3 -428089348#3.15 -428089348#3.21 -428089348#3.28 -353690151#5 -353690151#5.11 -353690151#5.12 -353690151#5.26 -353690151#5.83 -353690151#5.102 -353690151#2 -353690151#2.9 -353690151#2.22 -353690151#2.24 -353690151#2.39 -353690151#2.72 -353690151#2.92 -433500388#1 -433500388#1.11 -433500388#1.46 -433500388#1.73 -433500388#1.113 -433500388#1.115 -428088900#1 -428088900#1.10 -428088894#1 -428088894#1.25 -428088883#1 -428088883#1.15 -428088897 -428088888 -737711647 -332223490#1 -332223490#1.19 6514305#0 6514305#0.3 6514305#0.4 6514305#0.9 6514305#0.14 6514305#0.34 6514305#0.54 353690159#1 353690159#1.50 353690159#1.92 -6343878#11 -6343878#11.8 -6343878#11.104 6463530#10 6463530#10.5 6463530#10.49 6463530#10.87 -6435230#7 -6435230#7.4 -6435230#7.24 -6435230#7.64 -347094714#7 -347094714#7.12 -347094714#7.50 -347094714#7.93 -347094714#3 -347094714#3.9 -347094714#3.49 -347094714#3.92 6467490#0 6467490#0.7 6467490#0.49 6467490#0.78 -401497115 -401497115.113 -401497115.170 -401497115.214 -537677478#2 -537677478#2.10 -537677478#2.11 -537677478#2.28 -537677478#2.36 -6456046#3 -6456046#3.6 -6456046#3.36 -6456046#3.42 -6456046#3.49 -6456046#3.56 -6456046#3.62 -6456046#3.66 -6456046#3.71 -6456046#3.76 -6456046#3.92 -6456046#3.102 -6456046#3.109 -6456046#3.112 440890310 440890310.65 425646003#0 425646003#0.15 6465162#0 6465162#0.2 6465162#0.6 6465162#0.11 6465162#0.36 428233434 428233434.31 428233434.58 -739874554#2 -739874554#2.15 -739874554#2.40 -739874554#2.60 -739874554#2.67 622519661 622519661.8 739874553#0 739874553#0.66 739874553#0.80 739874553#0.88 333370569#0 333370569#0.6 333370569#0.13 333370569#0.37 333370569#0.43 333370569#0.66 333370569#0.94 333370569#0.155 333370569#0.178 333370566#0 333370566#0.32 6405076#0 6405076#0.10 6405076#0.18 6405076#0.21 6405076#0.58 6405076#0.79 6405076#0.81 6405076#3 6405076#3.4 6405076#3.8 6405076#3.14 6405076#3.20 6405076#3.50 6405076#3.68 6405076#3.84 22917663#0 22917663#0.5 22917663#0.8 22917663#0.11 22917663#0.26 22917663#0.59 22917663#0.67 22917663#0.85 22917663#6 22917663#6.6 22917663#6.34 22917663#6.58 22917663#6.88 22917663#11 22917663#11.6 22917663#11.23 22917663#11.87 -6465130#2 -6465130#2.8 -6465130#2.84 256996974#6 256996974#6.9 256996974#6.21 256996974#6.40 256996974#6.89 256996974#11 256996974#11.6 256996974#11.33 256996974#11.65 256996972 256996972.16 256996972.70 881403606#0 881403606#0.12 881403606#0.42 881403606#0.83 881403606#0.85 881403606#4 881403606#4.53 881403608#2 881403608#2.2 881403608#2.5 881403608#2.8 881403608#2.11 881403608#3 881403608#3.2 881403608#3.5 881403608#3.8 881403608#3.11 976099002#0 976099002#0.34 976099002#0.40 976099002#0.64 965874292#7 965874292#7.8 965874292#7.41 965874292#10 965874292#10.35 965874292#12 965874292#12.8 965874292#12.69 158123767#0 158123767#0.10 158123767#0.11 158123767#0.50 158123767#0.74 158123767#0.86 158123767#0.115 158123767#0.122 158123767#0.134 158123767#0.139 158123767#0.166 795669781 795669781.52 795669781.56 6497081#6 6497081#6.44 6414318#3 -157167355#0"/>
</vehicle>
<vehicle id = "veh20" type= "veh_passenger" depart="18025" >
<route edges =" -813722269#3 -813722269#3.7 -813722269#3.48 -813722269#3.84 -813722269#3.86 620762213#0 620762213#0.9 620762213#0.88 57883609#0 57883609#0.6 57883609#0.57 57883609#3 57883609#3.43 57883609#3.52 57883609#3.60 57883609#3.80 179551719 179551719.37 179551719.46 179551719.51 179551719.88 179551719.93 179551719.97 739843348#0 739843348#0.4 739843348#0.9 620762218#0 620762218#0.55 620762218#0.66 620762218#0.68 620762218#0.81 620762218#3 620762218#3.7 -525497324#2 243349944#4 243349944#4.53 243349944#6 243349944#7 243349944#8 243349944#9 243349944#10 243349944#10.7 243349944#10.84 -6360256#7 -6360256#7.5 6447445#3 6447445#3.51 -22917113#4 256994205#1 256994205#2 256994205#2.24 256994205#2.72 256994205#3 428246847#0 428246847#0.8 428246847#0.22 6386110#0 6386110#0.16 6386110#0.25 6386110#0.55 -243349338#6 -243349338#6.14"/>
</vehicle>
<vehicle id = "veh21" type= "veh_passenger" depart="18025" >
<route edges =" -816616074#1 -816616074#1.10 -816616074#1.14 -816616074#1.119 428341734#4 428341734#4.8 428246439#0 428246439#0.14 -569505978#1 -569505978#1.10 -569505979 -569505979.32 -569505979.79 337673338#0 337673338#0.14 337673337 337673339 826314456#0 826314456#0.9 826314456#0.50 826314456#0.96 826314456#0.103 349901822#0 349901822#0.9 349901822#2 349901822#2.21 332092195#0 332092195#0.9 332092195#0.74 -22917111#30 -22917111#30.9 -22917111#30.50 -22917111#30.96 -22917111#26 -22917111#26.7 -22917111#26.41 -22917111#26.121 32135548#5 32135548#5.7 32135548#5.49 32135548#5.88 32135548#9 32135548#9.7 32135548#9.47 32135548#9.63 32135548#9.78 525497323#0 525497323#0.50 525497323#2 525497323#2.81 40416132#0 40416132#0.19 40416132#1 40416132#1.90 -801995081#2 -801995081#2.109 6464126#5 6464126#6 6464126#7 6464126#7.50 -22917113#1 -22917113#1.55 243339793#9 243339793#9.48 185485132#3 185485132#3.10 6464126#11 6464126#11.50 6494975#2 243349338#5"/>
</vehicle>
<vehicle id = "veh22" type= "veh_passenger" depart="18025" >
<route edges =" 817434294 817434294.10 817434294.36 817434294.44 817434294.63 817434294.119 6343949#0 6343949#0.7 6343949#0.86 6343949#3 6343949#3.9 6343949#3.49 6343949#6 -65588100#1 -65588100#1.65 -826314455#3 -826314455#3.64 -826314455#3.71 -826314455#3.76 -826314455#3.90 -826314455#3.118 -349901821 -826314456#4 -826314456#4.12 -826314456#4.19 -826314456#4.65 -826314456#4.106 -337673339 -337673337 -337673338#1 -337673338#1.9 -395714916#1 -395714916#1.12 -568043367 -568043367.41 -568043367.79 893866065#0 893866065#0.10 893866065#0.66 893866065#0.92 893866065#3 893866065#3.6 893866065#3.48 893866065#3.88 893866065#7 893866065#7.7 893866065#7.48 893866065#7.90 293775902#0 293775902#0.7 293775902#0.52 293775902#0.90 293775902#4 293775902#4.6 293775902#4.49 293775902#4.88 -6440371#8 -6440371#8.7 -6440371#8.122 -6440371#8.124 -6440371#8.125 -6440371#5 -6440371#5.4 -6440371#5.6 -6440371#5.7 -6440371#5.119 -6440371#5.121 353690154#8 353690154#8.7 353690154#8.42 353690154#8.50 353690154#8.92 353690154#12 353690154#12.6 353690154#12.32 353690154#15 353690154#15.50 -6447971#10 -6447971#10.11 -6447971#9 6425689#0 6425689#0.48 6425689#2 6425689#2.48 -6380913#13 -6380913#12 -460419008#1 -460419008#1.44 -6515975#8 -6463532#1 -6463532#1.50 -6447971#6 6467507#4 6467507#4.48 -6515975#6 6507809#5 6507809#5.51 -6380913#4 169917351#9 169917351#9.48 169917351#9.87 6516509#15 6516509#15.7 6516509#15.35 6516509#15.48 6516509#15.68 6516509#15.70 6516509#15.79 6516509#15.84 6516509#15.98 6516509#15.101 6461236#0 6461236#0.9 6461236#0.24 6461236#0.44 6461236#0.58 6461236#0.60 6384260#3 6384260#3.54 -6487445#4 -6487445#4.15 -6487445#4.55 6415147#0 6415147#0.61 6415147#2 6497081#2 6497081#2.38 6497081#2.47 6497081#2.53 6497081#2.60 6497081#2.67 6497081#2.70 6497081#2.74 6497081#2.81 6497081#2.120 6497081#6 6497081#6.44 6497081#8 6371720#3 157167355#0"/>
</vehicle>
<vehicle id = "veh23" type= "veh_passenger" depart="18025" >
<route edges =" -814326475#2 -814326475#2.9 -814326475#2.24 -814326475#2.41 -814326475#2.70 -814326475#2.91 -6456052#5 -6456052#5.10 -6456052#5.36 -6456052#5.120 -607690679#4 -607690679#4.9 -607690679#4.87 -607690679#4.94 -607690679#4.99 -797328240#3 -797328240#3.13 -797328240#3.26 -797328240#3.65 -797328240#3.93 -797328240#3.115 -337673342#5 -337673342#5.3 -337673342#5.9 -337673342#5.13 -337673342#5.21 -337673342#5.35 -337673342#5.72 -607691082#1 -607691082#0 -6475815#3 -6475815#3.2 -6475815#3.17 -6475815#3.46 -428089348#3 -428089348#3.15 -428089348#3.21 -428089348#3.28 -353690151#5 -353690151#5.11 -353690151#5.12 -353690151#5.26 -353690151#5.83 -353690151#5.102 -353690151#2 -353690151#2.9 -353690151#2.22 -353690151#2.24 -353690151#2.39 -353690151#2.72 -353690151#2.92 -433500388#1 -433500388#1.11 -433500388#1.46 -433500388#1.73 -433500388#1.113 -433500388#1.115 -428088900#1 -428088900#1.10 -428088894#1 -428088894#1.25 -532166310#2 -532166310#2.3 -532166310#2.13 -6522514#4 -6522514#4.7 -6522514#4.36 -6522514#4.61 -6522514#4.66 -6522514#4.67 -6522514#4.73 -332223490#1 -332223490#1.19 -428088887#1 -428088887#1.12 -428088892 -428088886#1 -428088886#1.24 -428088886#1.35 -428088886#1.45 6463530#0 6463530#0.2 6463530#0.8 6463530#0.13 6463530#0.54 6463530#0.95 6463530#6 6463530#6.6 6463530#6.49 6463530#6.89 -6343878#8 -6343878#8.7 -6343878#8.85 -6343878#5 -6343878#5.9 -6343878#5.86 -893868549#2 -893868549#2.10 -893868549#2.49 -893868549#2.89 -893868549#2.91 -893868549#2.93 -893868549#2.94 6456044#0 6456044#0.1 6456044#0.2 6456044#0.3 6456044#0.4 6456044#0.6 6456044#0.84 6467490#0 6467490#0.7 6467490#0.49 6467490#0.78 -401497115 -401497115.113 -401497115.170 -401497115.214 -428233435 -460425668 -460425668.5 -6457806#2 -6457806#2.21 -6457806#2.25 -6457806#2.30 6476922#0 6476922#0.13 6476922#0.24 6476922#0.37 6476922#0.60 6476922#0.67 6413383#0 6413383#0.1 6413383#0.3 6413383#0.6 6413383#0.18 6413383#0.26 6413383#0.47 428233432#0 428233432#0.11 428233432#0.22 332223487#0 332223487#0.16 332223487#0.62 332223487#0.98 332223488 332223488.25 332223488.48 332223488.65 332223488.68 332223488.88 347092907#0 347092907#0.3 347092907#0.13 347092907#0.19 347092907#0.26 347092907#0.31 347092907#0.38 347092907#0.40 347092907#0.45 347092907#0.51 332223494#0 332223494#0.18 332223494#0.35 332223494#0.144 332223494#0.171 22760519#0 22760519#0.7 22760519#0.27 22760519#3 22760519#3.9 22760519#3.21 22760519#3.33 22760519#3.91 965874292#0 965874292#0.8 965874292#0.88 965874292#3 965874292#3.1 965874292#3.48 965874292#3.59 965874292#3.86 965874292#7 965874292#7.8 965874292#7.41 965874292#10 965874292#10.35 965874292#12 965874292#12.8 965874292#12.69 158123767#0 158123767#0.10 158123767#0.11 158123767#0.50 158123767#0.74 158123767#0.86 158123767#0.115 158123767#0.122 158123767#0.134 158123767#0.139 158123767#0.166 795669781 795669781.52 795669781.56 460421481#1 460421481#1.61 460421481#1.85 -428247194#1 -428247194#1.9 -428247194#1.28 -157167355#3 -157167355#3.5 -157167355#3.43 -157167355#0"/>
</vehicle>
<vehicle id = "veh24" type= "veh_passenger" depart="21630" >
<route edges =" -813722269#3 -813722269#3.7 -813722269#3.48 -813722269#3.84 -813722269#3.86 569505974#0 569505974#0.10 569505974#0.37 816616073#0 816616073#0.78 813722270#0 813722270#0.7 813722270#0.42 813722270#0.74 813722270#0.75 813722270#0.121 813722270#5 813722270#5.7 813722270#5.118 6411908#0 -337668916#5 -337668916#5.44 -337668916#5.90 -337668916#3 -337668916#3.10 -337668916#3.49 -337668916#3.92 337668911#0 337668911#0.7 337668911#0.37 337668911#0.90 -171739214#9 8071890#0 8071890#0.56 621283351#0 621283351#0.54 621283351#0.62 -428098984#1 -428098984#1.6 -428098987#2 -428098987#2.4 -428098987#2.32 -428098981 -171739214#7 -171739214#7.13 -171739214#7.36 -171739214#7.52 -171739214#7.90 752851600#4 752851600#4.6 752851600#4.8 752851600#4.28 752851600#4.34 752851600#4.35 752851600#4.38 752851600#4.44 752851600#4.97 6464391#3 6464391#3.6 6464391#3.75 6358524#6 6358524#6.5 6358524#6.55 6358524#9 6358524#9.62 6358524#9.78 6358524#12 8071894#2 8071894#3 -752851600#14 -752851600#14.33 6346308#10 6346308#10.28 6346308#10.34 621283354 896104581#0 896104581#0.119 158882517#0 -6368665#2 158882505#2 6346524#1 158882517#2 -6411908#3 158882505#4 158882505#4.31 160552467#8 158882517#4 6403883#3 6403883#4 6368504#0 6368504#1 6368504#1.33 -6457203#13 -6457203#13.26 8111707#0 8111707#0.47 8111707#2 8111707#2.47 603522174#2 603522174#2.123 -8111708#5 -8111708#5.7 -8111708#5.45 -8111708#2 -8111708#2.52 -8111708#2.57 -8111708#2.87 -8111708#2.90 -8111708#2.92 -8111708#2.94 -8111708#2.97 -8111708#2.99 -6457203#7 -6457203#7.15 -6457203#7.37 -6457203#7.51 -6457203#7.77 -6457203#7.91 -158882505#8 -6469837#1 -6469837#1.51 -171739214#20 -6403874#2 -6403874#2.90 -6403874#0 -65588100#6 -65588100#6.7 6430729#9 6430729#9.48 6430729#11 6430729#11.51 65588093#3 292812445#3 292812445#3.49 292812445#5 292812445#5.45 -525497324#8 6430729#17 6430729#17.51 -620762224#0 343521145#0 343521145#0.47 343521145#0.69 337739267#0 337818462 337818462.3 337818462.6 337739271#1 337739271#1.6 337739269#0 337739269#1 337739269#1.30 481291013#0 481291013#0.16 481291013#0.30 481291013#0.70 481291013#0.75 481291013#0.79 481291013#0.109 481291013#0.113 737709039#0 737709039#0.8 737709039#0.14 6383185#0 6383185#0.82 6383185#0.151 8071925#2 8071925#2.36 8071925#2.74 465799093#0 465799093#0.8 465799093#0.46 465799093#0.91 65588097#0 65588097#0.9 6384373#5 6384373#5.40 6384373#5.50 6384373#5.90 -6448612#5 -6448612#5.30 428315592#3 428315592#3.28 428315592#3.60 428315592#5 428315591#0 428315591#1 428315591#2 428315591#2.6 428315591#2.15 428315591#2.25 428315591#2.59 428315591#2.76 -912599281#1 -912599281#1.10 -912599281#1.25 -912599281#1.45 -40416127#2 -40416127#2.7 -40416127#2.26 -279467136#3 -279467136#3.77 -279467136#3.101 -279467136#1 -6463035#7 -6463035#6 -6463035#6.50 -6463035#6.52 -6463035#3 -6448612#1 -6448612#1.133 -22917113#10 -22917113#10.7 -22917113#10.129 -22917113#10.132 -22917113#7 -22917113#7.10 -22917113#7.19 -22917113#6 243349944#15 243349944#15.48 243349944#17 243349944#17.50 -6494975#7 6447445#9 6447445#9.49 -22760521#2 -22760521#2.81 -22760521#2.121 428246847#0 428246847#0.8 428246847#0.22 6386110#0 6386110#0.16 6386110#0.25 6386110#0.55 -243349338#6 -243349338#6.14"/>
</vehicle>
<vehicle id = "veh25" type= "veh_passenger" depart="21630" >
<route edges =" -816616074#1 -816616074#1.10 -816616074#1.14 -816616074#1.119 428341734#4 428341734#4.8 428246439#0 428246439#0.14 428246438#0 428246438#0.8 428246440#0 428246440#0.62 800744529#0 800744529#0.7 800744529#0.52 800744529#0.89 825336588#0 825336588#0.7 96029553#0 96029553#0.9 96029553#0.15 96029553#0.59 -893866066#2 -893866066#2.7 -893866066#2.122 32135548#0 32135548#0.6 32135548#0.48 32135548#0.53 32135548#0.64 32135548#0.89 32135548#0.90 -22917111#22 -22917111#22.9 -22917111#22.144 293775902#4 293775902#4.6 293775902#4.49 293775902#4.88 293775902#8 293775902#8.6 293775902#8.49 293775902#8.91 -6512920#7 -6512920#7.4 -6512920#7.122 -6512920#7.124 6464138#12 6464138#12.51 6464138#14 -481291488#1 -481291488#0 -481291488#0.69 -481291488#0.82 243339793#0 243339793#0.48 243339793#2 243339793#2.49 243339793#4 243339793#5 6360256#1 6360256#1.7 6360256#2 6360256#2.128 243349338#1 243349338#2 243349338#3 243349338#3.49 243349338#5"/>
</vehicle>
<vehicle id = "veh26" type= "veh_passenger" depart="21630" >
<route edges =" 817434294 817434294.10 817434294.36 817434294.44 817434294.63 817434294.119 6343949#0 6343949#0.7 6343949#0.86 -816616073#1 -816616073#1.7 -569505974#1 -569505974#1.6 -569505974#1.33 -569505976#2 -569505976#2.9 -569505976#2.88 -569505976#2.115 -569505976#2.119 -569505978#1 -569505978#1.10 -569505979 -569505979.32 -569505979.79 337673338#0 337673338#0.14 185882764 185882764.13 185882764.14 185882765 185882765.16 185882765.26 185882765.30 185882765.31 395933841 164418944#0 164418944#0.13 164418944#0.18 164418944#0.32 164418944#0.39 -353690148#9 -353690148#9.7 -353690148#9.10 -353690148#9.12 -353690148#9.13 -353690148#9.38 -353690148#9.143 -353690148#6 -353690148#6.8 -353690148#6.122 -353690148#3 -353690148#3.7 -353690148#3.59 -353690148#3.121 -353690147#3 -353690147#3.7 -353690147#3.110 -353690147#3.122 -486864438#4 -486864438#4.7 -486864438#4.89 -243338979#12 -243338979#12.10 -243338979#12.11 -243338979#12.62 -243338979#9 -243338979#9.5 -243338979#9.31 -243338979#6 -243338979#6.31 -243338979#6.61 486844942#0 486844942#0.5 486844942#0.15 486844942#0.87 486844942#4 486844942#4.7 486844942#4.31 486844942#4.73 486844942#4.89 -893868546#2 -893868546#2.10 -893868546#2.197 -893868548#2 -893868548#2.7 -893868548#2.85 901474739#0 901474739#0.7 901474739#0.111 901474739#3 901474739#3.6 901474739#3.41 901474739#3.71 6440364#7 6440364#7.7 6440364#7.83 901474741#0 901474741#0.6 901474741#0.85 901474741#0.87 6467507#0 6467507#0.7 6467507#0.88 6467507#3 6467507#4 6467507#4.48 6467507#6 6467507#6.51 -6380913#5 6507809#7 6507809#7.46 6507809#7.87 6507809#10 6507809#10.8 6507809#10.91 6507809#13 6507809#13.9 6507809#13.77 6452520#6 6452520#6.7 185485127#0 6523501#5 6523501#5.201 926425191#0 926425191#0.5 926425191#2 926425191#3 6391677 -8071924#0 -8071924#0.15 -428246845 -6386110#6 -6386110#6.5 -243339793#14 -243339793#14.51 6494975#1 6494975#1.9 6464126#13 6464126#13.49 6464126#15 6464126#15.47 6464126#17 6464126#17.40 -6501822#10 -6501822#9 -6501822#9.25 -6501822#8 -6501822#8.7 6441276#0 6441276#0.41 359671040#0 359671040#0.40 6449970#9 6336174#4 -6506505#4 -6506505#3 -6506505#2 -6506505#1 -6506505#1.22 -6467510#1 -6467510#1.38 6449970#3 -6463541#1 6396312#2 185485117#3 6449970#5 6449970#6 6449970#6.84 -259277920#0 -259277920#0.32 -259277920#0.50 -8071924#5 -8071924#4 -6472293#5 -6472293#5.39 185485117#1 -6501822#4 -6501822#3 185485127#10 -6396312#0 -6507818#0 6501822#1 -6507813#3 -6507813#3.42 -6507813#3.51 -6507813#0 6391682#2 6391682#2.12 6391682#2.24 6391682#2.34 6391682#2.45 -185485127#5 -185485127#5.56 -185485127#3 -185485127#3.10 -6494970#4 -6494970#4.172 -169917351#24 -169917351#24.6 -169917351#24.71 -6523501#2 -6523501#2.5 -6523501#2.101 6497081#0 6497081#0.8 -6415147#2 6449462#3 6449462#3.7 6449462#3.50 6449462#3.60 6449462#3.72 6449462#3.87 795669782#0 795669782#0.54 6414318#1 6414318#1.86 6497081#8 6371720#3 157167355#0"/>
</vehicle>
<vehicle id = "veh27" type= "veh_passenger" depart="21630" >
<route edges =" -814326475#2 -814326475#2.9 -814326475#2.24 -814326475#2.41 -814326475#2.70 -814326475#2.91 -723013181#2 -723013181#2.9 -723013181#2.18 -723013181#2.38 -723013181#0 -332601014#3 -332601014#3.31 -332601014#3.36 -332601014#3.42 -428246441#2 -428246441#2.2 -428246441#2.10 -723013876#1 -723013876#1.12 -723013876#1.18 -723013877 -6415868#5 -6415868#4 -6415868#4.9 -6415868#2 -6415868#2.13 -6415868#2.55 -6511393#6 -6511393#6.32 -6511393#6.48 -6511393#6.81 -6511393#6.115 723052304#0 723052304#1 723052304#1.70 6447455#0 6447455#0.5 6447455#0.10 -158612542#5 -158612542#5.11 -158612542#5.64 -158612542#5.73 -158612542#5.81 -158612542#5.114 -165086027#1 -165086027#1.2 -165086027#1.5 -759056491 -759056491.4 -759056491.8 -759056491.13 -759056491.17 -759056491.21 -759056491.26 -759056491.41 -759056491.81 -759056491.83 -759056491.88 -337673342#5 -337673342#5.3 -337673342#5.9 -337673342#5.13 -337673342#5.21 -337673342#5.35 -337673342#5.72 -337673342#0 6343890#0 6343890#0.54 6343890#0.56 6343890#0.58 6343890#0.59 6343890#0.61 -6475815#6 -6475815#6.16 -6475815#4 -6475815#3 -6475815#3.2 -6475815#3.17 -6475815#3.46 -428089348#3 -428089348#3.15 -428089348#3.21 -428089348#3.28 -428341218#2 -428341218#2.3 -428341218#2.9 -65588069#1 -65588069#1.13 -428089351#1 -428089351#1.16 -293753570#2 -293753570#2.9 -293753570#2.83 -369877031#7 -369877031#7.10 -369877031#7.98 -369877031#7.191 -749622503#8 -749622503#8.7 -749622503#8.63 -749622503#8.83 -749622503#4 -749622503#4.84 -749622503#2 -749622503#2.9 -749622503#2.29 -749622503#2.64 -749622503#2.84 -369877039 -369877039.36 -369877039.55 -428088903#1 -428088903#1.15 428231560#0 428231560#0.10 338073582#0 338073582#0.20 -6502980#13 -6502980#13.10 -6502980#13.20 -6502980#13.36 -6502980#13.49 -6502980#13.55 -6502980#13.82 -6502980#7 -6502980#7.6 -6502980#7.48 -6502980#7.86 -6502980#3 -6502980#3.7 -6502980#3.69 -6502980#3.84 347094711#0 347094711#0.7 347094711#0.20 347094711#0.38 347094711#0.50 347094711#0.69 347094711#0.73 347094711#0.74 347094712#0 347094712#0.21 -332223489#3 -332223489#3.4 -332223489#3.15 -332223489#3.17 -332223489#3.21 -401497115 -401497115.113 -401497115.170 -401497115.214 -428233435 -460425668 -460425668.5 425646007#0 425646007#0.10 425646007#0.17 425646007#0.20 425646007#0.22 425646007#0.27 -724644768 -724644768.35 6402586#0 6402586#0.1 6402586#0.4 6402586#0.6 6402586#0.12 6402586#0.35 6402586#0.59 6402586#4 6402586#4.72 6402586#4.75 6402586#4.77 6402586#4.80 208021560#0 208021560#0.2 208021560#0.5 208021560#0.8 208021560#0.11 208021560#0.30 208021560#0.39 208021560#0.44 208021560#0.106 208021560#0.125 208021560#0.133 208021560#0.136 347092914#0 347092914#0.10 347092914#0.14 347092914#0.24 347092914#0.54 347092914#0.75 347092914#0.87 332223488 332223488.25 332223488.48 332223488.65 332223488.68 332223488.88 347092907#0 347092907#0.3 347092907#0.13 347092907#0.19 347092907#0.26 347092907#0.31 347092907#0.38 347092907#0.40 347092907#0.45 347092907#0.51 332223494#0 332223494#0.18 332223494#0.35 332223494#0.144 332223494#0.171 6506833#15 6506833#15.8 6506833#15.10 6506833#15.35 6506833#18 6506833#18.45 6506833#20 6506833#20.8 6506833#20.47 6506833#20.85 263712957#13 263712957#13.7 263712957#13.54 263712957#13.186 844067888#0 844067888#0.8 844067888#0.63 844067888#0.137 844067888#0.187 263712958#0 263712958#0.8 263712958#0.45 263712958#0.101 263712958#0.114 263712958#0.117 263712958#0.119 6445479#0 6445479#0.4 6445479#0.8 6445479#0.186 965874292#10 965874292#10.35 965874292#12 965874292#12.8 965874292#12.69 158123767#0 158123767#0.10 158123767#0.11 158123767#0.50 158123767#0.74 158123767#0.86 158123767#0.115 158123767#0.122 158123767#0.134 158123767#0.139 158123767#0.166 795669781 795669781.52 795669781.56 6497081#6 6497081#6.44 6414318#3 -157167355#0"/>
</vehicle>
</routes>
