<?xml version="1.0" encoding="UTF-8"?>
<routes xmlns:xsi="http: // www.w3.org/2001/XMLSchema-instance" xsi:noNamespaceSchemaLocation="http: // sumo.dlr.de/xsd/routes_file.xsd">
<vType id="veh_passenger" vClass="passenger"/>

<vehicle id = "veh0" type= "veh_passenger" depart="0" >
<route edges =" -813722269#3 -813722269#3.7 -813722269#3.48 -813722269#3.84 -813722269#3.86 620762213#0 620762213#0.9 620762213#0.88 620762212#0 620762212#0.8 620762212#0.52 6343949#6 6343949#7 6343949#8 6343949#8.52 6343949#10 6343949#10.49 6343949#12 6343949#12.47 -525497324#3 -525497324#2 243349944#4 243349944#4.53 243349944#6 243349944#7 -460419011#3 -460419011#2 6464126#3 6464126#3.49 6464126#5 -460419028#3 243349338#0 243349338#0.18 243349338#1 243349338#2 243349338#3 243349338#3.49 243349338#5"/>
</vehicle>
<vehicle id = "veh1" type= "veh_passenger" depart="0" >
<route edges =" -6457203#16 -6457203#16.59 975126260#0 975126260#0.49 -6505136#16 6368504#5 6368504#5.48 6368504#7 6368504#7.50 -6513783#8 -6513783#7 37657905#3 37657905#3.48 37657905#5 37657905#5.10 37657905#5.46 37657905#7 37657905#7.49 476409329 -6383185#5 6384373#1 6384373#2 6384373#2.45 6384373#2.56 -65588097#1 -65588097#1.119 337818330 6463035#0 6463035#0.14 6463035#0.38 6463035#3 -6495801#0 -185485132#12 -185485132#12.125 -185485132#11 -185485132#11.16 243349945#9 243349945#9.50 -6494975#8 -6494975#7 -6494975#6 -6494975#6.81 256994205#3 428246847#0 428246847#0.8 428246847#0.22 6386110#0 6386110#0.16 6386110#0.25 6386110#0.55 -243349338#6 -243349338#6.14"/>
</vehicle>
<vehicle id = "veh2" type= "veh_passenger" depart="0" >
<route edges =" -6522868 -6403883#7 -6403883#6 -6403883#5 -6403883#4 -6403883#3 -6403883#2 158882505#7 158882505#8 8111709#0 8111709#0.47 8111709#2 8111709#2.49 8111709#4 8111709#4.49 -6513783#5 6384359#8 6384359#9 6384359#9.26 -6381494#3 -6381494#3.43 6463017#6 6463017#6.48 -6386837#0 337739268 337739268.124 337739267#0 337818462 337818462.3 337818462.6 337739271#1 337739271#1.6 337739269#0 -460419011#4 243349944#8 -801995081#5 -801995081#5.197 -801995081#5.209 -801995081#2 -801995081#2.109 -801995081#0 243339793#4 243339793#5 243339793#6 243339793#6.50 243339793#6.74 -22917112 -185485118#1 6514312#0 6514312#0.70 -6523501#6 -6523501#6.6 185485127#1 -6494970#4 -6494970#4.172 -6494970#2 -6494970#2.4 -6494970#2.100 6358721#0 6358721#0.9 6415147#4 6415147#5 6415147#6 6351349#2 6351349#3 6351349#3.107 6351349#5 -185483733 -6414318#4 -157167355#0"/>
</vehicle>
<vehicle id = "veh3" type= "veh_passenger" depart="0" >
<route edges =" 817434294 817434294.10 817434294.36 817434294.44 817434294.63 817434294.119 6343949#0 6343949#0.7 6343949#0.86 6343949#3 6343949#3.9 6343949#3.49 620762212#3 6430729#6 6430729#6.47 6430729#6.48 6430729#9 6430729#9.48 6430729#11 6430729#11.51 6430729#13 6430729#13.48 6430729#15 6430729#15.48 6430729#17 6430729#17.51 -620762224#0 -66558981#7 -66558981#7.65 -66558981#7.83 -66558981#7.105 -66558981#7.123 -66558981#2 -66558981#2.131 -66558981#2.234 525497323#2 525497323#2.81 -481291488#2 -481291488#1 -481291488#0 -481291488#0.69 -481291488#0.82 -6447971#10 -6447971#10.11 -6447971#9 -6447971#8 -6447971#7 -6447971#6 -6447971#5 -6447971#4 169917351#6 169917351#7 169917351#7.49 169917351#9 169917351#9.48 169917351#9.87 169917351#12 169917351#12.9 169917351#12.42 169917351#12.90 -6360239#3 -6360239#3.6 -6360239#3.69 -6360239#3.102 6487445#0 6487445#0.8 6415147#0 6415147#0.61 6449462#3 6449462#3.7 6449462#3.50 6449462#3.60 6449462#3.72 6449462#3.87 795669782#0 795669782#0.54 795669782#2 6371720#2 6371720#3 157167355#0"/>
</vehicle>
<vehicle id = "veh4" type= "veh_passenger" depart="3605" >
<route edges =" -813722269#3 -813722269#3.7 -813722269#3.48 -813722269#3.84 -813722269#3.86 620762213#0 620762213#0.9 620762213#0.88 57883609#0 57883609#0.6 57883609#0.57 57883609#3 57883609#3.43 57883609#3.52 57883609#3.60 57883609#3.80 620762214 332092195#0 332092195#0.9 332092195#0.74 -22917111#30 -22917111#30.9 -22917111#30.50 -22917111#30.96 8071900#4 8071900#4.7 8071900#4.49 8071900#4.88 6440348#0 6440348#0.6 6440348#0.84 6440348#0.93 6440348#0.107 6440348#0.114 6440348#6 6440348#6.25 6440348#8 6440348#8.12 6440348#8.47 6440348#8.88 6440348#8.91 6343949#12 6343949#12.47 -525497324#3 620762218#5 620762218#5.18 620762218#5.80 -66558981#7 -66558981#7.65 -66558981#7.83 -66558981#7.105 -66558981#7.123 243349944#6 -481291488#4 -481291488#4.47 40416132#0 40416132#0.19 40416132#1 40416132#1.90 256994206#0 256994206#0.8 256994206#0.43 256994206#0.60 460419028#0 460419028#0.11 460419028#0.49 460419028#0.79 460419028#0.95 243349338#0 243349338#0.18 243349338#1 243349338#2 185485132#5 185485132#5.98 256994205#2 256994205#2.24 256994205#2.72 -6494975#4 -6494975#4.53 243349338#5"/>
</vehicle>
<vehicle id = "veh5" type= "veh_passenger" depart="3605" >
<route edges =" -6457203#16 -6457203#16.59 -6457203#15 -6457203#15.22 -6457203#14 -6457203#14.67 6368504#3 6368504#3.46 -6505136#15 8111707#2 8111707#2.47 603522174#2 603522174#2.123 -8111708#5 -8111708#5.7 -8111708#5.45 -6505136#13 -6505136#13.115 8111709#2 8111709#2.49 8111709#4 8111709#4.49 6513783#6 37657905#3 37657905#3.48 6381494#9 6381494#9.36 6381494#9.62 -170683231#18 -170683231#18.37 -170683231#18.49 336904472#5 336904472#5.77 638348589 -263666867#2 -263666867#2.43 -263666867#2.72 6381494#15 6381494#16 933598957 933598957.180 6434058#0 6434058#0.15 6434058#0.33 6434058#0.56 6434058#0.73 6434058#0.96 6434058#0.116 6434058#0.128 6434058#1 481291021#0 481291021#1 -6383185#18 -6383185#18.50 -6383185#18.92 -6383185#15 -6383185#15.9 -481291017#1 -481291017#1.44 481291016 -481291020#2 -481291020#2.33 -481291020#2.45 -481291018 -638348588#1 603522176#6 603522176#6.51 -476409334#0 642732922 476409331 476409332#0 476409332#0.44 -6383185#7 -6383185#6 -6383185#5 6384373#1 6460085#2 6460085#2.86 6464374 65588097#4 65588097#4.20 65588097#6 65588097#7 65588097#7.42 65588097#9 -6523125#0 6460085#12 6460085#12.26 735164737 735164737.10 735164737.15 6451291#0 6451291#0.7 6451291#0.16 6451291#0.45 735164739 735164739.21 735164739.27 735164739.31 -394736758#7 -394736758#7.6 -394736758#7.14 -394736758#7.26 -394736758#7.93 6428555#0 6428555#0.17 6428555#0.32 6428555#0.51 -6448615#6 -6448615#6.24 -6448615#6.44 -6448615#6.47 -6448615#6.70 6459736#2 6459736#2.37 6459736#2.48 6459736#2.60 6459736#2.65 6459736#2.73 -6495798#8 -6495798#8.42 -6495798#6 -6495798#6.39 6523125#2 6523125#3 6523125#3.26 6523125#3.40 6523125#3.61 -6349125#3 -6349125#3.8 -6349125#3.20 -6349125#2 -6349125#2.60 -6349125#2.61 -6349125#2.68 -6349125#2.76 -6349125#2.79 -476409332#11 -476409332#11.8 -6349126#4 -6349126#4.29 -6349126#4.47 -6349126#4.62 -6349126#4.68 -6349126#4.76 -6349126#4.79 -6349126#4.104 -854081622#0 -854081622#0.13 -337818332#2 -337818332#2.7 -337818332#2.70 -912599280 -912599281#1 -912599281#1.10 -912599281#1.25 -912599281#1.45 -6349021#2 -6349021#2.11 6464371#0 6464371#0.8 6464371#0.32 40416130#0 40416130#1 6353867#1 6414237#1 6414237#2 6414237#2.7 6414237#2.43 6414237#2.81 6414237#6 6414237#6.7 6414237#6.34 -6369950#6 -6369950#6.6 -6369950#6.120 -6369950#3 -170683665#13 -170683665#11 -170683665#11.54 -6353177#4 -6353177#3 -6353177#3.7 -6353177#3.98 -6353177#3.134 336908262#4 336908262#4.6 -359671039#10 -359671039#10.86 -805658294#8 -805658294#7 -805658294#7.50 -805658294#5 -805658294#5.50 -805658294#3 -805658294#3.49 6494975#10 6494975#10.11 6494975#10.19 -805680044#9 -805680044#9.50 -185485132#12 -185485132#12.125 -185485132#11 -185485132#11.16 -243349945#8 -243349945#8.11 -243349945#8.51 22917113#7 22917113#7.114 22917113#7.123 -361784407#3 -361784407#3.43 -361784407#3.58 -361784407#3.88 6360256#14 6360256#14.7 6360256#14.133 -805680044#0 -805680044#0.6 -805680044#0.45 -805680044#0.95 396055523#1 396055523#1.42 396055523#1.177 396055523#1.183 396055523#5 396055523#5.8 396055523#5.42 396055523#7 396055523#7.122 -243349944#9 -801995081#5 -801995081#5.197 -801995081#5.209 256994206#0 256994206#0.8 256994206#0.43 256994206#0.60 396055524#0 396055524#0.9 396055524#0.30 396055524#0.54 396055524#0.65 6360256#5 6447445#3 6447445#3.51 6447445#5 6447445#5.47 185485132#9 243349944#17 243349944#17.50 6494975#8 243349945#11 243349945#11.47 243349945#13 243349945#13.48 -6472289#2 243349944#23 243349944#23.46 243349944#25 359671039#6 243349945#18 -532125609#2 243349944#27 243349944#28 -263665040#1 -263665040#1.27 -263665040#1.83 -263665040#1.86 -460419010 -460419010.105 -460419010.122 -878126486#2 -878126486#2.9 -878126486#2.10 -878126486#2.42 -243349941#7 -243349941#7.26 -352434864#1 -352434864#1.74 -243349331#3 -243349331#3.51 -243349331#3.121 -243349331#1 -243349331#1.102 -6336174#5 6506505#5 -6464130#4 6449970#11 6449970#12 -438895608#1 -359671039#3 -243349338#9 160624556 160624556.10 438895607 438895607.119 -6447445#13 -6447445#13.40 -6447445#11 -22760521#2 -22760521#2.81 -22760521#2.121 428246847#0 428246847#0.8 428246847#0.22 6386110#0 6386110#0.16 6386110#0.25 6386110#0.55 -243349338#6 -243349338#6.14"/>
</vehicle>
<vehicle id = "veh6" type= "veh_passenger" depart="3605" >
<route edges =" 6457203#17 -6428544#18 -6428544#18.43 -6428544#18.144 -6428544#15 -6428544#15.8 -6462093 -6462093.45 -6462093.54 -6462093.65 -6462093.80 -6462093.95 -6462093.117 -6462093.128 -6462093.141 -6462093.175 6323849#2 6323849#3 6323849#3.9 6323849#3.21 6323849#3.30 6323849#3.53 6323849#3.67 -6403883#6 -6403883#5 6368504#0 6368504#1 6368504#1.33 -6457203#13 -6457203#13.26 -158882511#9 -158882511#9.24 -6469837#3 158882517#6 158882517#6.46 158882517#6.66 158882517#6.67 158882517#6.69 158882517#6.71 158882517#6.73 -6457203#7 -6457203#7.15 -6457203#7.37 -6457203#7.51 -6457203#7.77 -6457203#7.91 -6457203#3 -6457203#3.34 -6457203#3.51 -6457203#3.73 -6457203#3.81 -171739214#24 -171739214#24.39 -171739214#24.44 -171739214#24.63 6469837#0 6469837#0.39 -158882505#7 -158882505#6 160552467#8 160552467#9 160552467#10 160552467#10.81 160552467#10.91 160552467#10.102 -8071379#3 -8071379#3.41 6411908#6 -263668130#2 -263668130#2.17 -263668130#2.32 -263668130#2.43 -263668130#2.52 -263668130#2.58 -263668130#2.67 -263668130#2.74 -263668130#2.85 -263668130#0 -337099385#0 -337099385#0.153 -337099385#0.159 -61958425 -158882561#2 -158882561#2.11 -158882561#2.28 -158882561#2.46 -158882561#2.60 158882511#0 -6368665#4 -6368665#4.121 -158882517#0 -896104580#1 -896104580#1.68 -6414229#15 -6414229#15.10 -6414229#15.45 -6414229#12 -6358524#8 -6358524#8.71 -6358524#8.120 -6464391#5 -6464391#5.5 -6464391#5.73 -6464391#2 -6464391#2.4 -6464391#2.68 -621283351#2 -621283351#2.12 -621283351#2.21 158882505#0 158882505#0.42 158882505#2 -6346524#0 171739214#13 -6411908#1 -6411908#1.18 -6411908#1.26 -6411908#0 171739207#0 171739207#0.49 171739207#2 171739207#2.46 6403874#0 337668916#10 6463027#0 6463027#0.20 6463027#0.21 6463027#0.23 6463027#0.25 6463027#0.26 6463027#0.28 6463027#0.31 6463027#0.33 6463027#0.35 6463027#0.37 6463027#0.39 6463027#0.76 292812446#5 8071899 6384359#0 6384359#0.22 6384359#0.45 6384359#0.50 6384359#4 6384359#4.13 6384359#4.31 6384359#4.51 6384359#6 6384359#6.48 6384359#8 6384359#9 6384359#9.26 -6381494#3 -6381494#3.43 6463017#6 6463017#6.48 6386837#1 6386837#2 6384359#12 6384359#12.14 6384359#12.24 6384359#12.93 -6444677 481291015#0 481291015#0.20 481291015#0.59 -343521145#3 -343521145#3.32 -343521145#3.66 -343521145#3.101 -343521145#3.142 -343521145#3.155 337739267#0 337818462 337818462.3 337818462.6 337739271#1 337739271#1.6 337739269#0 -460419011#4 243349944#8 243349944#9 243349944#10 243349944#10.7 243349944#10.84 6360256#8 6360256#8.125 243349945#3 243349945#3.5 243349945#3.45 243349945#3.49 243349945#6 243349945#6.48 243349945#6.88 -185485132#10 -243349944#16 -243349944#16.49 -22917113#5 -6447445#4 -6447445#4.47 -6447445#2 -6447445#2.7 -6447445#2.86 396055523#11 396055523#11.17 396055523#11.23 396055523#11.42 396055523#11.62 396055523#11.85 396055523#11.96 396055523#11.121 460419028#0 460419028#0.11 460419028#0.49 460419028#0.79 460419028#0.95 460419028#3 460419028#4 -243339793#4 -243339793#3 -243339793#3.47 -460419011#0 -460419011#0.11 460419013#0 460419013#0.51 481291014#0 481291014#0.53 353690153#0 353690153#0.8 353690153#0.25 353690153#0.87 486875123#0 486875123#0.56 486875123#0.88 22917112 243339793#9 243339793#9.48 185485132#3 185485132#3.10 6464126#11 6464126#11.50 -6494975#1 -6494975#1.103 243339793#13 243339793#13.49 -6386110#4 -6386110#4.86 6464126#15 6464126#15.47 6464126#17 6464126#17.40 6501822#11 6464130#0 6464130#0.42 -359671039#1 -359671039#0 359671040#0 359671040#0.40 -6449970#8 -6449970#7 -6449970#7.42 -6449970#5 -185485117#3 6396312#3 6396312#3.157 -8071924#5 -8071924#4 -8071924#3 -8071924#3.39 -8071924#3.51 -8071924#0 -8071924#0.15 -481291012#7 -481291012#7.22 -481291012#6 -481291012#6.8 -6494970#7 -926425191#1 -926425191#1.73 -6514312#1 -6514312#1.8 -185485118#0 -185485118#0.55 -185485118#0.102 -185485118#0.141 -6452520#7 -6452520#7.84 -6507809#15 -6507809#15.7 -6507809#15.75 -6360239#7 -6360239#7.6 -6360239#7.47 -6360239#7.86 169917351#16 169917351#16.9 169917351#16.77 -6452520#2 -6452520#2.4 -6452520#2.101 6449462#0 6449462#0.9 6449462#0.46 6415147#2 6415147#3 6415147#4 428247193#3 428247193#3.27 486632638#0 486632638#0.14 486632638#0.27 256996977#0 256996977#0.9 256996977#0.40 6391682#0 6391682#0.62 6507813#0 6472293#2 185485127#7 185485127#7.45 185485127#7.50 -6501822#2 -6501822#1 -6501822#0 -6501822#0.165 256996977#8 620762211#0 620762211#0.4 620762211#0.8 620762211#0.77 620762211#1 620762211#1.10 620762211#1.36 620762211#1.73 620762211#1.115 620762211#1.170 620762211#1.178 -256997441#8 -256997441#8.6 -256997441#7 -256997441#7.46 6351349#5 -185483733 -6414318#4 -157167355#0"/>
</vehicle>
<vehicle id = "veh7" type= "veh_passenger" depart="3605" >
<route edges =" 817434294 817434294.10 817434294.36 817434294.44 817434294.63 817434294.119 6343949#0 6343949#0.7 6343949#0.86 6343949#3 6343949#3.9 6343949#3.49 6343949#6 6343949#7 -8071898#2 -8071898#1 -8071898#1.60 -8071898#1.73 -8071898#1.89 -8071898#1.91 292812445#0 292812445#0.35 292812445#0.50 292812445#3 292812445#3.49 -6440348#14 -6440348#13 -6440348#13.56 -6440348#13.66 -6440348#13.122 -6440348#13.124 -6440348#10 -6440348#10.4 -6440348#10.6 -6440348#10.48 -6440348#10.83 -6440348#7 -6440348#7.9 -6440348#5 -6440348#5.15 -6440348#5.21 -6440348#5.35 -6440348#5.44 -6440348#5.122 8071900#8 8071900#8.6 8071900#8.7 8071900#8.49 8071900#8.53 -525497324#0 -6512920#11 -6512920#11.12 -6512920#11.49 -6512920#11.62 -6512920#11.76 -6512920#11.147 293775902#12 293775902#12.3 293775902#12.50 -6481166#11 -6481166#11.122 -6481166#11.125 6464138#14 -481291488#1 -481291488#0 -481291488#0.69 -481291488#0.82 243339793#0 243339793#0.48 243339793#2 243339793#2.49 801995081#0 6464126#5 6464126#6 6464126#7 6464126#7.50 -22917113#1 -22917113#1.55 -22917112 -486875123#1 -486875123#1.10 -486875123#1.42 -353690153#2 -353690153#2.9 -353690153#2.71 -353690153#2.88 -481291014#1 -481291014#1.20 -6380913#14 -6380913#13 -6380913#12 -6380913#11 -6380913#11.53 -6380913#7 -6380913#7.22 -6380913#5 -6507809#6 -6507809#6.47 6515975#6 -6467507#5 -6467507#5.50 -6447971#5 -6507809#3 -6481166#4 169917351#4 169917351#4.51 169917351#6 -6515975#3 -6515975#3.6 -6515975#3.44 -6515975#3.102 256996973#0 256996973#0.33 256996973#0.45 256996973#0.49 256996975#0 256996975#0.50 256996975#0.62 256996975#0.65 256996975#0.91 256996976#0 256996976#0.11 256996976#0.20 256996976#0.46 256996976#0.79 6487445#0 6487445#0.8 6415147#0 6415147#0.61 6449462#3 6449462#3.7 6449462#3.50 6449462#3.60 6449462#3.72 6449462#3.87 795669782#0 795669782#0.54 795669782#2 795669782#3 795846818#0 795846818#0.1 795846818#2 795846818#2.7 795846818#2.14 795846818#2.102 795846818#5 795846818#5.5 795846818#5.174 481291011#0 481291011#0.6 481291011#0.65 481291010#0 481291010#0.19 481291010#0.23 481291010#0.30 481291010#0.133 481291010#3 481291010#3.6 481291010#3.100 -6497081#10 -6497081#10.7 6371720#3 157167355#0"/>
</vehicle>
<vehicle id = "veh8" type= "veh_passenger" depart="7210" >
<route edges =" -813722269#3 -813722269#3.7 -813722269#3.48 -813722269#3.84 -813722269#3.86 -569505976#2 -569505976#2.9 -569505976#2.88 -569505976#2.115 -569505976#2.119 -569505978#1 -569505978#1.10 -569505979 -569505979.32 -569505979.79 337673338#0 337673338#0.14 185882764 185882764.13 185882764.14 164418942#0 164418942#0.4 164418942#0.7 164418942#0.9 164418942#0.11 164418942#0.14 164418942#0.15 337673339 826314456#0 826314456#0.9 826314456#0.50 826314456#0.96 826314456#0.103 349901822#0 349901822#0.9 349901822#2 349901822#2.21 332092195#0 332092195#0.9 332092195#0.74 460423532#0 460423532#0.2 -739843348#1 -739843348#1.10 -739843348#1.15 -808903542#1 -808903542#1.4 -808903542#1.8 -808903542#1.13 -808903542#1.51 -808903542#1.55 -808903542#1.64 -8071898#3 6343949#8 6343949#8.52 6343949#10 6343949#10.49 6343949#12 6343949#12.47 -525497324#3 -620762218#4 -620762218#4.108 -6440348#7 -6440348#7.9 243349944#0 243349944#0.4 243349944#0.20 243349944#0.49 -525497324#1 -525497324#0 525497323#0 525497323#0.50 -6481166#12 -6481166#11 -6481166#11.122 -6481166#11.125 6464138#14 481291488#2 40416132#0 40416132#0.19 460419011#3 243349944#8 -801995081#5 -801995081#5.197 -801995081#5.209 -801995081#2 -801995081#2.109 -801995081#0 243339793#4 -460419028#4 6464126#6 6360256#2 6360256#2.128 6360256#4 6360256#5 6447445#3 6447445#3.51 6447445#5 6447445#5.47 -185485132#8 -185485132#8.81 -185485132#6 -185485132#6.52 243349338#3 243349338#3.49 243349338#5"/>
</vehicle>
<vehicle id = "veh9" type= "veh_passenger" depart="7210" >
<route edges =" 6457203#17 6457203#18 6457203#18.8 6457203#18.11 37686291#0 37686291#0.47 37686291#0.88 37686291#0.94 37686291#0.98 157284449#0 157284449#0.6 157284449#0.28 242516209#2 242516209#2.53 37657904 -6339665#2 -6339665#2.49 -6339665#2.89 -6339665#2.93 -6505136#18 -6505136#18.3 -6505136#18.6 -6505136#16 -6368504#4 -6368504#4.51 -6368504#2 -6368504#2.43 -6368504#0 -6403883#4 158882511#8 158882511#9 158882511#9.51 8111707#0 8111707#0.47 8111707#2 8111707#2.47 -603522174#1 6368504#7 6368504#7.50 -6513783#8 -6513783#7 37657905#3 37657905#3.48 6381494#9 6381494#9.36 6381494#9.62 6381494#12 6381494#12.56 6368504#12 6368504#12.37 6368504#12.47 638348589 263666867#3 263666867#3.49 476409334#0 -603522176#7 -603522176#7.43 -603522176#5 -603522176#5.43 -603522176#5.84 -603522176#3 -603522176#3.50 6513783#11 6513783#11.206 945555824#0 945555824#0.41 945555824#2 945555824#2.47 481291018 481291020#0 481291020#0.49 481291020#0.62 481291020#3 481291020#3.24 481291020#3.46 -6383185#15 -6383185#15.9 481291017#2 481291017#2.37 481291017#2.43 481291017#2.49 481291017#2.51 481291017#2.59 481291017#2.71 481291017#2.87 481291017#2.112 481291017#2.124 -8071885#1 -603522176#12 -603522176#12.42 -603522176#12.44 -6383185#12 476409333#2 476409333#2.45 6523125#0 -65588097#9 6345330#1 -6495798#3 -476409332#6 -476409332#5 -476409332#4 -6460085#6 -6460085#6.27 -6460085#5 -6460085#5.109 -61151096 6383185#6 6383185#7 -476409332#1 -476409332#1.39 791722143#0 791722143#0.9 170683231#12 170683231#12.36 170683231#12.50 170683231#12.64 -336904472#4 -336904472#4.96 37657905#7 37657905#7.49 476409328#0 476409328#0.201 6384373#0 6384373#1 6384373#2 6384373#2.45 6384373#2.56 -65588097#1 -65588097#1.119 337818330 428315592#0 428315592#0.12 428315592#0.53 428315592#0.95 428315592#3 428315592#3.28 428315592#3.60 6495798#0 6495798#0.9 6495798#0.43 -170683231#2 -6356667#1 -6356667#1.147 -6356667#1.181 -428315591#1 -6356671#2 -6356671#2.8 -6356671#2.34 6349021#0 6464371#0 6464371#0.8 6464371#0.32 40416130#0 -6349133#2 -6349133#2.120 -170683665#6 -170683665#6.49 -170683665#4 -170683665#4.47 -170683665#2 -170683665#2.49 -170683665#2.51 -170683665#2.95 -6495801#1 -6463035#3 -6448612#1 -6448612#1.133 805680044#5 805680044#5.6 805680044#5.49 805680044#8 805680044#8.47 6356676#0 6463035#7 6463035#8 6463035#8.49 -6349133#0 336908262#2 336908262#2.49 6353177#0 6353177#0.8 6353177#0.44 6353177#0.135 6463035#12 6463035#12.7 6521828#4 170683665#13 -6369950#2 -6369950#2.24 -6369950#0 -336908262#6 -359671039#10 -359671039#10.86 -805658294#8 -160624558#2 243349945#17 243349945#18 532125609#3 808266757#0 808266757#0.7 -352434874#3 243349945#20 263665040#3 263665040#3.26 263665040#3.104 263665040#3.115 808266757#2 808266757#2.40 6409627#0 6409627#0.39 32135618#1 32135618#1.53 6521060#0 6521060#0.43 6521060#2 6521060#2.16 6521060#2.23 6521060#2.28 6521060#2.33 6521060#2.38 6521060#2.49 6521060#2.53 6521060#2.58 6521060#2.64 6521060#2.69 -6463022#4 -6463022#4.10 -6463022#4.17 -6463022#4.24 6472195#2 6472195#2.117 6472195#2.124 6472195#2.126 6472195#2.128 6472195#2.134 6472195#2.151 6472195#2.158 6472195#2.165 6472195#2.173 6472195#4 40416130#15 40416130#15.35 40416130#18 40416130#18.5 -304120724 -304120724.10 -8071850 -8071850.30 -8071850.45 -8071850.53 -8071850.63 -8071850.75 -8071850.81 -8071850.89 -8071849#6 -8071849#6.38 -8071849#6.58 -8071849#6.73 -8071849#6.138 -8071849#6.148 -8071849#6.163 -8071849#6.177 -8071849#6.221 -8071849#3 -8071849#2 -8071849#2.11 -8071849#2.20 -8071849#1 -8071849#1.124 -8071849#1.147 -8071849#1.171 6430750#2 6430750#2.14 6430750#2.25 -6345302#1 -6345302#1.12 -6345302#1.17 -6343958#3 -6343958#2 -6343958#1 6468802#5 6468802#5.103 6468802#5.110 6468802#5.118 6468802#5.125 -808266757#6 -336908257#9 -336908257#8 -336908257#7 -6447445#25 -6447445#25.7 -6447445#25.41 6409640#11 6409640#12 6409640#13 6409640#13.62 6409640#13.65 -6512824 -6512824.3 -6512824.8 -6512824.65 -6512824.72 -243349941#12 -243349941#12.7 -243349941#11 -243349941#10 -243349941#10.85 -6447445#20 -6447445#20.21 -6447445#20.41 -6447445#17 -352434874#0 -263665039 -263665039.32 -263665039.58 -263665039.72 532125609#0 -6447445#15 -6447445#14 160624558#0 160624558#0.9 160624558#0.16 -243349944#24 -243349944#24.50 -243349944#22 -243349944#22.50 -243349944#20 -243349944#20.50 -6494975#7 -6494975#6 -6494975#6.81 256994205#3 428246847#0 428246847#0.8 428246847#0.22 6386110#0 6386110#0.16 6386110#0.25 6386110#0.55 -243349338#6 -243349338#6.14"/>
</vehicle>
<vehicle id = "veh10" type= "veh_passenger" depart="7210" >
<route edges =" -6522868 -6403883#7 -6323849#4 -6323849#4.14 -6323849#4.28 -6323849#4.52 -6323849#4.61 -6323849#4.72 -6323849#2 -6323849#1 -6323849#1.28 -263668130#2 -263668130#2.17 -263668130#2.32 -263668130#2.43 -263668130#2.52 -263668130#2.58 -263668130#2.67 -263668130#2.74 -263668130#2.85 -263668130#0 -337099385#0 -337099385#0.153 -337099385#0.159 -61958425 158882561#3 -8071380#1 -8071380#1.2 -8071380#1.5 -8071380#1.8 -8071380#1.11 -8071380#1.45 -8071380#1.57 -8071380#1.61 -8071894#4 -8071894#3 6384935#0 6384935#0.113 8071895#1 8071381#0 8071381#0.67 -6428544#4 -6428544#3 -6428544#3.82 -6428544#1 -6348400#1 -6348400#1.20 -6348400#1.22 -6348400#1.27 215404534#2 -6358515#1 -6358515#0 -8071894#0 -6374789#13 -6346308#5 -6346308#5.48 749754758#10 -6368518#3 -6368518#3.49 -6368518#1 -6368518#1.50 -6368518#1.97 -6368518#1.99 -6508650#4 -6508650#4.2 -6508650#4.3 -6508650#3 -6508650#3.116 -6508650#3.247 -6508650#3.259 -6508650#2 -6508650#2.140 -6508650#2.252 -256993082#5 -256993082#5.11 -256993082#3 -256993082#3.4 -256993082#3.32 -256993082#3.38 -395928755#1 -395928755#1.9 -65588116#5 -65588116#5.12 -65588116#5.38 -65588116#5.44 -65588116#5.64 -65588116#5.81 -65588116#1 -65588116#1.113 -460423541#1 -460423541#1.113 568586005 568586006 723052303 -6511393#1 -6511393#1.119 -912290518#7 -912290518#7.59 -912290518#5 -912290518#5.5 -912290518#5.37 -912290518#5.42 -912290518#5.62 -912290518#5.70 -912290518#2 -912290518#2.2 -912290518#2.24 -912290518#2.91 -912290518#2.94 158612542#0 158612542#0.8 158612542#0.40 158612542#0.49 158612542#0.58 158612542#0.111 158612542#6 158612542#6.7 158612542#6.50 158612542#6.74 -6415868#5 -6415868#4 -6415868#4.9 6349123#7 6343952#3 6343952#3.71 6343952#3.75 6461453#11 6461453#11.55 6461453#11.69 6461453#11.115 6461453#11.128 6461453#17 6461453#17.40 6461453#17.73 6461453#17.80 -6474762#2 -6474762#2.6 -6474762#2.9 -6474762#2.12 6374789#0 6374789#0.39 6374789#0.75 6374789#0.100 -749754754#0 -749754754#0.11 -749754755 -749754755.11 -749754755.23 -749754755.34 -749754755.44 -749754755.57 -749754755.70 -749754755.72 -749754755.82 -749754755.92 -749754755.102 -621088608#1 -621088608#1.7 -621088608#1.12 -393047810#1 -393047810#1.14 -393047810#1.66 -393047810#1.75 -6366765#24 -6366765#24.9 -6366765#24.38 -6366765#24.40 -6366765#24.42 -6366765#24.43 -6366765#24.47 -6366765#24.51 -6366765#24.58 -6366765#24.79 -6366765#20 -6366765#20.3 -6366765#20.6 -6366765#20.39 -6366765#18 -6366765#18.28 -6366765#18.47 -6366765#18.74 -6366765#18.98 -6366765#18.129 -6366765#12 -6366765#12.5 -6366765#12.120 -6366765#9 -6366765#9.7 -6366765#9.123 6414229#4 6414229#4.5 6414229#4.47 6414229#4.88 6414229#8 6414229#8.3 6414229#8.47 6414229#11 6358524#9 6358524#9.62 6358524#9.78 6346308#7 6346308#7.38 6346308#7.46 6346308#10 6346308#10.28 6346308#10.34 -428098977 -428314464 -428314470 -428098982 -428098978#1 -428098978#1.18 -6414229#15 -6414229#15.10 -6414229#15.45 -752851600#10 -752851600#10.40 -752851600#10.121 6464391#3 6464391#3.6 6464391#3.75 6464391#6 6464391#6.5 6464391#6.66 6464391#9 6464391#9.7 6464391#9.49 6464391#9.91 -749754758#4 -749754758#4.4 -749754758#4.120 6384350#8 6384350#8.4 6384350#8.47 6384350#8.86 6384350#12 6384350#12.6 6384350#12.22 6384350#12.25 6384350#12.26 6384350#12.30 6384350#12.34 6384350#12.43 6384350#12.47 6384350#12.53 6384350#12.55 6384350#12.58 6384350#12.61 6384350#12.70 -6358524#2 -6358524#2.6 -6358524#2.122 548654006#0 548654006#0.8 548654006#0.16 548654006#0.24 548654006#0.54 331930455#0 331930455#0.9 331930455#0.42 331930455#0.49 331930455#0.60 331930455#0.86 623536799#0 623536799#0.9 623536799#0.30 623536799#0.39 623536799#0.58 623536799#0.61 623536799#0.92 337668916#0 337668916#0.6 337668916#0.48 337668916#0.88 -6346526#3 -6346526#3.8 -6346526#3.30 -6346526#3.122 158882495#0 158882495#0.6 6411908#0 6411908#1 6411908#1.103 6411908#1.111 -171739214#13 6346524#0 6346524#1 6346524#2 158882511#3 -6411908#4 158882517#3 -160552467#8 158882505#6 6403883#2 158882517#5 -6469837#2 158882505#8 8111709#0 8111709#0.47 -6505136#12 -6505136#12.73 -6505136#12.84 -6505136#12.102 -6505136#12.111 -6505136#12.122 -6505136#6 -6505136#6.18 6463017#0 6463017#0.48 6463017#2 6463017#2.44 6463017#2.48 6513783#2 6513783#2.8 6513783#2.46 6513783#2.65 6513783#2.68 -6384359#7 -6384359#7.49 6464042#3 6464042#3.16 6464042#3.33 6464042#3.50 6464042#3.56 8111709#4 8111709#4.49 757399066#0 757399066#0.51 757399066#0.87 -6381494#6 -6381494#6.57 -6381494#6.77 -6381494#6.94 -6381494#3 -6381494#3.43 6463017#6 6463017#6.48 6386837#1 8071897#0 8071897#0.89 -6444677 -292812445#12 -292812445#12.49 337739268 337739268.124 337739267#0 337739267#1 -481291488#10 -481291488#10.44 -481291488#10.61 -481291488#10.85 -481291488#10.132 -481291488#10.142 -481291488#4 -481291488#4.47 -481291488#2 -6464138#14 -6481166#10 -6481166#10.6 -6481166#10.8 -6481166#10.120 353690154#15 353690154#15.50 -6447971#10 -6447971#10.11 -6447971#9 6425689#0 6425689#0.48 6425689#2 6425689#2.48 6380913#14 481291014#0 481291014#0.53 353690153#0 353690153#0.8 353690153#0.25 353690153#0.87 486875123#0 486875123#0.56 486875123#0.88 481291012#0 481291012#0.24 481291012#0.32 185485132#2 185485132#2.104 243339793#11 243339793#11.47 243339793#13 243339793#13.49 6386110#5 6386110#5.80 428246845 8071924#0 8071924#0.13 -6391677 -926425191#3 926425193#2 926425193#2.6 926425193#2.94 926425193#2.182 926425193#2.204 926425193#2.206 -185485127#3 -185485127#3.10 -185485127#1 -6523501#4 -6523501#4.175 -6523501#2 -6523501#2.5 -6523501#2.101 6497081#0 6497081#0.8 6415147#3 6415147#4 6415147#5 -6489809#1 -6489809#1.47 6391682#0 6391682#0.62 6391682#2 6391682#2.12 6391682#2.24 6391682#2.34 6391682#2.45 185485127#6 6472293#3 6472293#4 6472293#4.162 6472293#6 6472293#6.106 795671506#0 795671506#0.46 6501822#9 6501822#9.6 6336174#0 6336174#0.42 359671039#1 6464130#2 6464130#2.44 6464130#4 -6506505#5 -6336174#4 -6449970#9 -6449970#8 259277920#1 -6506505#3 -6425683#0 -6449970#5 -6449970#4 -6463541#1 -6396312#1 -6396312#0 -6396314 -6396314.166 -256996977#8 6354836#0 6354836#0.6 6354836#1 6354836#1.40 6354836#3 -256997441#7 -256997441#7.46 -256997441#5 -256997441#5.36 -256997441#5.83 14374224#4 14374224#4.44 14374224#4.54 14374224#4.84 14374224#4.122 -6414318#4 -157167355#0"/>
</vehicle>
<vehicle id = "veh11" type= "veh_passenger" depart="7210" >
<route edges =" 817434294 817434294.10 817434294.36 817434294.44 817434294.63 817434294.119 6343949#0 6343949#0.7 6343949#0.86 6343949#3 6343949#3.9 6343949#3.49 6343949#6 65588100#2 65588100#2.20 65588100#2.57 6430729#9 6430729#9.48 6430729#11 6430729#11.51 6430729#13 6430729#13.48 6430729#15 6430729#15.48 525497324#8 292812445#7 292812445#7.46 -620762224#1 -620762224#0 -66558981#7 -66558981#7.65 -66558981#7.83 -66558981#7.105 -66558981#7.123 -66558981#2 -66558981#2.131 -66558981#2.234 525497323#2 525497323#2.81 -481291488#2 -6464138#14 6481166#11 6481166#11.4 6481166#11.7 -293775902#14 -293775902#14.49 -293775902#14.96 -6512920#7 -6512920#7.4 -6512920#7.122 -6512920#7.124 -6512920#5 -6512920#5.6 -6512920#5.9 -6512920#5.119 -6512920#5.124 353690154#12 353690154#12.6 353690154#12.32 -6481166#9 -6481166#9.8 -6481166#8 -6481166#8.162 -465971499#1 -465971499#1.88 -901419467#2 -901419467#2.9 -901419467#2.49 -901419467#2.54 -901419467#2.71 -901419467#2.91 -353690160#5 -353690160#5.7 -353690160#5.91 -353690160#2 -353690160#2.8 -353690160#2.90 -486844942#6 -486844942#6.9 -486844942#6.25 -486844942#6.67 -486844942#6.92 -6476327#15 -6476327#15.10 -6476327#15.38 -6476327#15.65 -6476327#11 893868547#0 893868547#0.8 893868547#0.91 876005346#0 876005346#0.6 876005346#0.88 876005346#3 -22917110#5 -22917110#5.7 -22917110#5.84 -901474739#2 -901474739#2.10 -901474739#2.115 -893868550#2 -893868550#2.7 -893868550#2.86 -32135545#3 -32135545#3.7 -32135545#3.47 -32135545#3.102 256996974#0 256996974#0.8 256996974#0.88 256996974#3 256996974#3.6 256996974#3.29 256996974#3.56 256996974#3.86 256996974#6 256996974#6.9 256996974#6.21 256996974#6.40 256996974#6.89 256996974#11 256996974#11.6 256996974#11.33 256996974#11.65 6481166#0 6481166#0.6 6481166#0.73 6481166#0.104 -169917351#3 -169917351#3.10 -169917351#3.45 -169917351#3.90 -901477545#9 -901477545#9.8 -901477545#9.86 6440364#4 6440364#4.6 6440364#4.86 901474739#7 901474739#7.8 901474739#7.82 901474742#0 901474742#0.6 901474742#0.45 901474742#0.83 6467507#0 6467507#0.7 6467507#0.88 6467507#3 -6447971#5 6507809#4 6507809#5 6507809#5.51 -6380913#4 169917351#9 169917351#9.48 169917351#9.87 169917351#12 169917351#12.9 169917351#12.42 169917351#12.90 169917351#16 169917351#16.9 169917351#16.77 -6452520#2 -6452520#2.4 -6452520#2.101 6449462#0 6449462#0.9 6449462#0.46 6449462#3 6449462#3.7 6449462#3.50 6449462#3.60 6449462#3.72 6449462#3.87 795669782#0 795669782#0.54 -6414318#0 -6414318#0.76 -6414318#0.81 460418987#0 460418987#0.4 460418987#0.8 460418987#1 6371720#0 6371720#0.7 6371720#2 6497081#9 6497081#9.126 369455641#1 369455641#1.28 369455641#1.78 512126022#0 512126022#0.11 512126022#0.46 185483738#4 185483738#4.14 185483738#6 185483738#6.71 185483738#6.123 6496652#2 6496652#2.75 6351337#3 6351337#3.8 6351337#3.120 6351337#3.123 -754699003#4 -754699003#4.5 -754699003#2 -754699003#2.70 -754699003#0 -259278406#0 -22917677#2 -22917677#2.4 -22917677#2.10 -22917677#2.39 -6496652#8 -6496652#8.7 -22917678#2 -22917678#2.8 -22917678#2.134 -6367253#1 -6367253#1.137 -6467368#2 -6467368#0 -185483738#2 -185483738#2.93 -6371720#5 -6371720#5.41 157167355#0"/>
</vehicle>
<vehicle id = "veh12" type= "veh_passenger" depart="10815" >
<route edges =" -813722269#3 -813722269#3.7 -813722269#3.48 -813722269#3.84 -813722269#3.86 569505974#0 569505974#0.10 569505974#0.37 816616073#0 816616073#0.78 813722270#0 813722270#0.7 813722270#0.42 813722270#0.74 813722270#0.75 813722270#0.121 6430729#3 6430729#3.9 6430729#3.48 6430729#6 6430729#6.47 6430729#6.48 6430729#9 6430729#9.48 -8071898#1 -8071898#1.60 -8071898#1.73 -8071898#1.89 -8071898#1.91 292812445#0 292812445#0.35 292812445#0.50 292812445#3 292812445#3.49 292812445#5 292812445#5.45 -525497324#8 6430729#17 6430729#17.51 -620762224#0 -66558981#7 -66558981#7.65 -66558981#7.83 -66558981#7.105 -66558981#7.123 243349944#6 243349944#7 243349944#8 243349944#9 396055523#9 396055523#9.6 396055523#9.20 396055523#9.54 6447445#0 6447445#0.8 6447445#0.87 -6360256#5 256994205#0 256994205#0.67 22917113#4 22917113#5 243349944#15 243349944#15.48 -185485132#9 6447445#7 6447445#7.46 6447445#9 6447445#9.49 -22760521#2 -22760521#2.81 -22760521#2.121 428246847#0 428246847#0.8 428246847#0.22 6386110#0 6386110#0.16 6386110#0.25 6386110#0.55 -243349338#6 -243349338#6.14"/>
</vehicle>
<vehicle id = "veh13" type= "veh_passenger" depart="10815" >
<route edges =" -816616074#1 -816616074#1.10 -816616074#1.14 -816616074#1.119 428341734#4 428341734#4.8 428246439#0 428246439#0.14 569505976#0 569505976#0.10 569505976#0.14 569505976#0.41 569505976#0.120 620762213#0 620762213#0.9 620762213#0.88 57883609#0 57883609#0.6 57883609#0.57 57883609#3 57883609#3.43 57883609#3.52 57883609#3.60 57883609#3.80 179551719 179551719.37 179551719.46 179551719.51 179551719.88 179551719.93 179551719.97 739843348#0 739843348#0.4 739843348#0.9 620762218#0 620762218#0.55 620762218#0.66 620762218#0.68 620762218#0.81 -6440348#7 -6440348#7.9 -6440348#5 -6440348#5.15 -6440348#5.21 -6440348#5.35 -6440348#5.44 -6440348#5.122 -8071900#7 -8071900#7.9 -8071900#7.49 -8071900#7.91 -22917111#26 -22917111#26.7 -22917111#26.41 -22917111#26.121 32135548#5 32135548#5.7 32135548#5.49 32135548#5.88 32135548#9 32135548#9.7 32135548#9.47 32135548#9.63 32135548#9.78 525497323#0 525497323#0.50 525497323#2 525497323#2.81 40416132#0 40416132#0.19 -460419011#2 6464126#3 6464126#3.49 6464126#5 6464126#6 6464126#7 6464126#7.50 6464126#9 6464126#9.46 185485132#4 243349338#3 243349338#3.49 243349338#5"/>
</vehicle>
<vehicle id = "veh14" type= "veh_passenger" depart="10815" >
<route edges =" 817434294 817434294.10 817434294.36 817434294.44 817434294.63 817434294.119 6343949#0 6343949#0.7 6343949#0.86 -816616073#1 -816616073#1.7 -569505974#1 -569505974#1.6 -569505974#1.33 -569505976#2 -569505976#2.9 -569505976#2.88 -569505976#2.115 -569505976#2.119 -569505978#1 -569505978#1.10 -569505979 -569505979.32 -569505979.79 337673338#0 337673338#0.14 185882764 185882764.13 185882764.14 164418942#0 164418942#0.4 164418942#0.7 164418942#0.9 164418942#0.11 164418942#0.14 164418942#0.15 337673339 826314456#0 826314456#0.9 826314456#0.50 826314456#0.96 826314456#0.103 -6476313#2 -6476313#2.11 -6476313#2.29 -6476313#2.98 -6476313#2.99 -6476313#2.103 -6476313#2.107 -164418944#3 -164418944#3.9 -164418944#3.15 -164418944#3.30 -164418944#3.35 -395933841 -243338979#28 -243338979#28.13 -243338979#28.49 -243338979#28.142 -243338979#28.143 -243338979#25 -243338979#25.8 -243338979#25.64 -243338979#25.77 -243338979#25.120 -243338979#20 -243338979#20.7 -243338979#20.121 353690157#0 353690157#0.5 353690157#0.19 353690157#0.47 353690157#0.72 353690157#0.87 893866056#0 893866056#0.8 893866056#0.64 893866056#0.88 353690154#0 353690154#0.7 353690154#0.49 353690154#0.90 -22917111#13 -22917111#13.8 -22917111#13.10 -22917111#13.79 -22917111#13.80 -22917111#13.98 -22917111#13.123 460419029#5 460419029#5.8 460419029#5.52 460419029#5.91 460419029#9 460419029#9.7 460419029#9.45 486874837#0 486874837#1 -6447971#9 -6447971#8 263669069#1 263669069#1.41 263669069#1.48 263669069#1.70 -6515975#8 -6515975#7 -6515975#6 -6515975#5 -6515975#5.48 169917351#7 169917351#7.49 169917351#9 169917351#9.48 169917351#9.87 169917351#12 169917351#12.9 169917351#12.42 169917351#12.90 -6360239#3 -6360239#3.6 -6360239#3.69 -6360239#3.102 256996976#3 256996976#3.7 256996976#3.76 460421482#0 460421482#0.8 460421482#0.73 6497081#0 6497081#0.8 6415147#3 6415147#4 -428247193#2 -428247193#2.56 -428247193#2.61 -428247193#2.96 -428247193#2.117 -428247193#2.121 -428247193#2.140 -428247193#2.154 -428247195 -428247195.5 -428247194#1 -428247194#1.9 -428247194#1.28 -157167355#3 -157167355#3.5 -157167355#3.43 -6414318#3 -6414318#2 -6414318#2.8 795669782#2 795669782#3 795846818#0 795846818#0.1 460418978#3 460418978#3.9 460418978#3.49 369455641#1 369455641#1.28 369455641#1.78 -512126023#7 -512126023#7.8 -512126023#7.19 -512126023#7.31 -512126023#7.44 -512126023#7.91 -512126023#7.107 -512126023#7.111 -512126023#7.245 6496652#0 6496652#0.8 6496652#2 6496652#2.75 6351337#3 6351337#3.8 6351337#3.120 6351337#3.123 -754699003#4 -754699003#4.5 -6367253#5 -6367253#4 -6367253#4.7 -6367253#4.119 -6485999#2 -6485999#1 -6485999#1.42 -185483738#5 -185483738#5.100 -185483738#3 -185483738#3.11 -185483738#3.19 6467368#0 -661086629#2 -661086629#2.7 -6371720#6 -6371720#5 -6371720#5.41 157167355#0"/>
</vehicle>
<vehicle id = "veh15" type= "veh_passenger" depart="10815" >
<route edges =" -814326475#2 -814326475#2.9 -814326475#2.24 -814326475#2.41 -814326475#2.70 -814326475#2.91 -723013181#2 -723013181#2.9 -723013181#2.18 -723013181#2.38 -723013181#0 -332601014#3 -332601014#3.31 -332601014#3.36 -332601014#3.42 -428246436#1 -428246436#1.13 -428246436#1.22 -428246436#1.37 -808907363#3 -808907363#3.25 -808907363#3.35 -808907363#3.48 -808907363#3.53 -808907363#3.61 607690679#0 607690679#0.3 607690679#0.8 607690679#0.15 607690679#0.94 -6456052#1 -6456052#1.10 -6456052#1.62 -607691082#1 6501701#2 6501701#2.50 6501701#2.60 -6475815#4 -6475815#3 -6475815#3.2 -6475815#3.17 -6475815#3.46 -428089348#3 -428089348#3.15 -428089348#3.21 -428089348#3.28 332223491#0 332223491#0.12 6438604#0 6438604#0.3 6438604#0.6 6438604#0.8 6438604#0.10 6438604#0.11 6438604#0.13 6438604#0.44 6438604#0.60 -22927969#14 -22927969#14.8 -22927969#14.47 -22927969#14.89 293753570#6 293753570#6.10 293753570#6.38 293753570#6.84 293753570#6.86 -368560864#2 -368560864#2.7 -368560864#2.11 -368560864#2.84 -368560864#2.86 -368560864#2.88 -6462029#17 -6462029#17.2 -6462029#17.5 -6462029#17.7 -6462029#17.45 -6462029#17.88 -6462029#13 -6462029#13.9 -6462029#13.48 -6462029#13.90 -749622503#25 -749622503#25.7 -749622503#25.85 -759056694#10 -759056694#10.10 -759056694#10.50 -759056694#10.73 -759056694#10.89 -6511397#7 -6511397#7.8 -6511397#7.39 -6511397#7.86 -22927969#6 -22927969#6.8 -22927969#6.48 -22927969#6.90 -749622503#18 -749622503#18.7 -749622503#18.55 -749622503#18.81 -428227803#1 -428227803#1.9 -428227860 -428227860.14 -428227828 -428227842 -428227822#1 -428227822#1.17 -428227833#1 -428227833#1.13 -428227838 -428227854#1 -428227854#1.5 -428227818 -428227865#1 -428227865#1.18 338073583#14 338073583#14.11 338073583#14.23 338073583#14.40 338073583#14.60 338073583#14.86 -80574890#3 -80574890#3.8 -80574890#3.48 -80574890#3.78 -80574890#3.88 -621283347#4 -621283347#4.8 -621283347#4.61 -621283347#4.75 -621283347#4.82 -428227877#1 -428227877#1.10 -428227882#1 -428227882#1.23 -428227887#1 -428227887#1.18 -8111067#14 -8111067#14.9 -8111067#14.17 -8111067#14.35 -8111067#14.57 -8111067#14.84 -8111067#8 -8111067#8.8 -8111067#8.39 -8111067#8.57 -8111067#8.85 -8111067#5 -8111067#5.7 -8111067#5.83 263672096#4 263672096#4.7 263672096#4.42 263672096#4.87 169511255#4 169511255#4.10 169511255#4.67 169511255#4.85 169511255#8 169511255#8.9 169511255#8.44 169511255#8.58 169511255#8.83 263672156#0 263672156#0.7 263672156#0.17 263672156#0.91 263672156#3 263672156#3.7 263672156#3.57 263672156#3.86 369877031#0 369877031#0.10 369877031#0.31 369877031#0.46 369877031#0.88 -749622503#8 -749622503#8.7 -749622503#8.63 -749622503#8.83 -749622503#4 -749622503#4.84 -749622503#2 -749622503#2.9 -749622503#2.29 -749622503#2.64 -749622503#2.84 -6522514#4 -6522514#4.7 -6522514#4.36 -6522514#4.61 -6522514#4.66 -6522514#4.67 -6522514#4.73 -332223490#1 -332223490#1.19 6514305#0 6514305#0.3 6514305#0.4 6514305#0.9 6514305#0.14 6514305#0.34 6514305#0.54 353690159#1 353690159#1.50 353690159#1.92 -6343878#11 -6343878#11.8 -6343878#11.104 -6343878#8 -6343878#8.7 -6343878#8.85 -347094714#3 -347094714#3.9 -347094714#3.49 -347094714#3.92 6467490#0 6467490#0.7 6467490#0.49 6467490#0.78 -401497115 -401497115.113 -401497115.170 -401497115.214 -537677478#2 -537677478#2.10 -537677478#2.11 -537677478#2.28 -537677478#2.36 -6456046#3 -6456046#3.6 -6456046#3.36 -6456046#3.42 -6456046#3.49 -6456046#3.56 -6456046#3.62 -6456046#3.66 -6456046#3.71 -6456046#3.76 -6456046#3.92 -6456046#3.102 -6456046#3.109 -6456046#3.112 440890310 440890310.65 425646003#0 425646003#0.15 6476922#0 6476922#0.13 6476922#0.24 6476922#0.37 6476922#0.60 6476922#0.67 6413383#0 6413383#0.1 6413383#0.3 6413383#0.6 6413383#0.18 6413383#0.26 6413383#0.47 428233432#0 428233432#0.11 428233432#0.22 332223487#0 332223487#0.16 332223487#0.62 332223487#0.98 893872038 893872038.9 893872038.14 893872038.97 893872038.123 893872038.129 893872038.134 347092915#0 347092915#0.8 347092915#0.32 347092915#0.44 347092915#0.89 347092915#0.182 6506833#11 6506833#11.9 6506833#11.45 6506833#11.74 6506833#11.79 22760519#0 22760519#0.7 22760519#0.27 22760519#3 22760519#3.9 22760519#3.21 22760519#3.33 22760519#3.91 965874292#0 965874292#0.8 965874292#0.88 -22917664#2 -22917664#2.11 -22917664#2.76 881403607#0 881403607#0.25 881403607#0.42 881403608#3 881403608#3.2 881403608#3.5 881403608#3.8 881403608#3.11 976099002#0 976099002#0.34 976099002#0.40 976099002#0.64 965874292#7 965874292#7.8 965874292#7.41 965874292#10 965874292#10.35 965874292#12 965874292#12.8 965874292#12.69 158123767#0 158123767#0.10 158123767#0.11 158123767#0.50 158123767#0.74 158123767#0.86 158123767#0.115 158123767#0.122 158123767#0.134 158123767#0.139 158123767#0.166 795669782#0 795669782#0.54 6414318#1 6414318#1.86 6414318#3 -157167355#0"/>
</vehicle>
<vehicle id = "veh16" type= "veh_passenger" depart="14420" >
<route edges =" -813722269#3 -813722269#3.7 -813722269#3.48 -813722269#3.84 -813722269#3.86 569505974#0 569505974#0.10 569505974#0.37 816616073#0 816616073#0.78 6343949#3 6343949#3.9 6343949#3.49 6343949#6 6343949#7 6343949#8 6343949#8.52 6343949#10 6343949#10.49 6343949#12 6343949#12.47 -525497324#3 -525497324#2 243349944#4 243349944#4.53 243349944#6 243349944#7 -460419011#3 40416132#1 40416132#1.90 801995081#3 801995081#3.54 801995081#3.66 801995081#6 801995081#6.192 481291013#0 481291013#0.16 481291013#0.30 481291013#0.70 481291013#0.75 481291013#0.79 481291013#0.109 481291013#0.113 737709039#0 737709039#0.8 737709039#0.14 6383185#0 6383185#0.82 6383185#0.151 6383185#3 6383185#3.8 6383185#5 -476409329 -791722143#1 -170683231#11 -170683231#11.43 6383185#7 6383185#8 6383185#8.23 6383185#8.67 6383185#8.93 6383185#8.141 476409333#2 476409333#2.45 6460085#12 6460085#12.26 735164737 735164737.10 735164737.15 6522860#0 6522860#0.11 6522860#1 6522860#2 6522860#2.23 6522860#2.40 6522860#2.46 6522860#2.55 6522860#2.62 6522860#2.67 6522860#2.76 6522860#2.89 -6495798#6 -6495798#6.39 6523125#2 170683288#6 6522860#14 6522860#14.12 6522860#14.34 6522860#14.81 6522860#14.110 6522860#14.119 -6349125#3 -6349125#3.8 -6349125#3.20 -6345330#5 -6345330#5.16 -6345330#5.40 -170683288#3 -170683288#3.39 -170683288#3.69 -170683288#3.76 -476409332#8 -6356667#2 170683231#2 170683231#3 170683231#4 170683231#4.50 170683231#4.58 -65588097#5 -65588097#5.172 -65588097#3 -65588097#3.73 6384373#5 6384373#5.40 6384373#5.50 6384373#5.90 -6448612#5 -6448612#5.30 -6448612#3 -6448612#3.16 -6448612#1 -6448612#1.133 -22917113#10 -22917113#10.7 -22917113#10.129 -22917113#10.132 -22917113#7 -22917113#7.10 -22917113#7.19 243349945#6 243349945#6.48 243349945#6.88 185485132#11 185485132#11.115 185485132#12 185485132#12.17 805680044#8 805680044#8.47 805680044#10 -243349942#2 -805658294#3 -805658294#3.49 -6494975#9 -6494975#9.13 -6494975#9.24 -6494975#8 -6494975#7 -6494975#6 -6494975#6.81 256994205#3 428246847#0 428246847#0.8 428246847#0.22 6386110#0 6386110#0.16 6386110#0.25 6386110#0.55 -243349338#6 -243349338#6.14"/>
</vehicle>
<vehicle id = "veh17" type= "veh_passenger" depart="14420" >
<route edges =" -816616074#1 -816616074#1.10 -816616074#1.14 -816616074#1.119 428341734#4 428341734#4.8 428246439#0 428246439#0.14 428246438#0 428246438#0.8 428246440#0 428246440#0.62 800744529#0 800744529#0.7 800744529#0.52 800744529#0.89 825336588#0 825336588#0.7 -349901822#1 -349901822#1.38 -6476313#2 -6476313#2.11 -6476313#2.29 -6476313#2.98 -6476313#2.99 -6476313#2.103 -6476313#2.107 164418944#4 164418944#4.7 164418944#4.8 164418944#4.29 164418944#4.51 164418944#4.95 32135548#0 32135548#0.6 32135548#0.48 32135548#0.53 32135548#0.64 32135548#0.89 32135548#0.90 -22917111#22 -22917111#22.9 -22917111#22.144 293775902#4 293775902#4.6 293775902#4.49 293775902#4.88 -6440371#8 -6440371#8.7 -6440371#8.122 -6440371#8.124 -6440371#8.125 -6440371#5 -6440371#5.4 -6440371#5.6 -6440371#5.7 -6440371#5.119 -6440371#5.121 353690154#8 353690154#8.7 353690154#8.42 353690154#8.50 353690154#8.92 353690154#12 353690154#12.6 353690154#12.32 353690154#15 353690154#15.50 243339793#0 243339793#0.48 460419011#1 460419011#1.11 6464126#3 6464126#3.49 -801995081#0 243339793#4 243339793#5 243339793#6 243339793#6.50 243339793#6.74 243339793#9 243339793#9.48 -185485132#2 -185485132#2.8 -185485132#1 -185485132#1.196 -6523501#6 -6523501#6.6 185485127#1 185485127#2 185485127#2.70 185485127#4 185485127#4.10 185485127#6 185485127#7 185485127#7.45 185485127#7.50 185485127#10 6396312#1 6396312#2 185485117#3 6449970#5 6449970#6 6449970#6.84 259277920#1 259277920#2 259277920#2.23 32143377#0 32143377#0.40 243349941#3 243349941#4 -6464130#6 243349331#2 243349331#2.15 243349331#2.84 352434864#0 352434864#0.8 243349941#6 243349941#6.114 878126486#0 878126486#0.41 878126486#0.73 878126486#0.75 -352434868 -352434868.9 352434874#0 352434874#1 243349944#28 243349944#29 -243349941#10 -243349941#10.85 6447445#21 6447445#21.41 6447445#21.75 6409640#11 6409640#12 -243349945#23 -243349945#23.41 -243349945#21 -243349945#20 -243349945#19 532125609#3 808266756 808266756.17 40416129 6369950#0 -6463035#14 -6463035#13 -6463035#13.80 -6463035#11 -6463035#11.50 -6349133#0 -6472289#4 -805658294#5 -805658294#5.50 -243349942#1 -243349942#1.104 -243349942#0 -243349942#0.28 243349944#21 243349944#21.48 6472289#2 243349945#15 243349945#15.47 -160624558#1 243349944#25 243349944#26 -532125609#1 -532125609#0 -438895608#1 -359671039#3 -359671039#2 -6464130#1 -6464130#1.43 -6501822#11 -6464126#18 -6464126#18.45 -795671505#1 -795671505#1.57 -795671505#1.102 -243339793#16 -243339793#16.49 6386110#5 6386110#5.80 428246845 -481291012#7 -481291012#7.22 -481291012#6 -481291012#6.8 6494975#0 6494975#0.105 6494975#1 6494975#1.9 6494975#2 243349338#5"/>
</vehicle>
<vehicle id = "veh18" type= "veh_passenger" depart="14420" >
<route edges =" 817434294 817434294.10 817434294.36 817434294.44 817434294.63 817434294.119 816616072#4 816616072#4.7 816616072#4.62 816616072#4.121 6430729#0 6430729#0.7 6430729#0.86 813722270#5 813722270#5.7 813722270#5.118 -158882495#1 -158882495#1.91 -65588084#2 -65588084#2.10 -65588084#2.91 440887830#0 440887830#0.8 644748880#0 644748880#0.9 644748880#0.50 644748880#0.55 428098988#0 428098988#0.8 428098988#0.9 428098988#0.54 428098988#0.75 428246434#0 428246434#0.18 -331930455#4 -331930455#4.14 -331930455#4.40 -331930455#4.51 -331930455#4.58 -331930455#4.91 6384942#0 6384942#0.11 752851600#0 752851600#0.51 752851600#0.59 752851600#0.98 752851600#0.99 752851600#0.101 171739214#3 171739214#3.6 171739214#3.44 171739214#3.60 171739214#3.83 171739214#8 171739214#9 171739214#10 171739214#11 171739214#12 6346524#0 6346524#1 -158882517#1 6368665#3 6368665#3.5 158882511#1 158882511#1.35 6346524#3 6346524#3.79 6346524#3.88 6346524#3.93 6346524#3.98 6346524#3.103 6346524#3.111 6346524#3.116 6346524#3.121 6346524#4 6346524#4.124 6346524#4.138 6346524#7 6428544#11 6428544#11.45 6428544#13 6428544#14 6428544#14.73 -6403883#8 6522868 -6457203#16 -6457203#16.59 -6323849#6 -6323849#6.43 -6403883#6 -6403883#5 -6403883#4 -6403883#3 -6403883#2 -6403883#1 -6403874#2 -6403874#2.90 -337668916#9 -337668916#9.50 -160552467#0 -620762212#5 -620762212#5.7 -620762212#3 -620762212#2 -620762212#2.76 -620762212#2.120 -800744530#5 -800744530#5.9 -800744530#5.19 -800744530#5.73 -800744530#5.84 -800744530#5.118 -800744528#1 -800744528#1.8 -800744528#1.16 -800744528#1.37 -800744528#1.72 -337673339 -337673337 -337673338#1 -337673338#1.9 -395714916#1 -395714916#1.12 -568043367 -568043367.41 -568043367.79 -293775903#2 -293775903#2.10 -293775903#2.37 -293775903#2.89 -293775903#2.118 893866060#0 893866060#0.10 893866060#0.69 893866060#0.91 893866060#4 893866060#4.6 893866060#4.48 893866060#4.89 893866060#8 893866060#8.7 893866060#8.65 893866060#8.89 6464138#0 6464138#0.7 6464138#0.53 6464138#0.92 -22917111#16 -22917111#16.4 -22917111#16.5 -22917111#16.7 -22917111#16.120 -22917111#16.122 353690154#4 353690154#4.6 353690154#4.49 353690154#4.54 353690154#4.87 -6440371#2 -6440371#2.9 -6440371#2.11 -6440371#2.121 -6440371#2.122 460419029#9 460419029#9.7 460419029#9.45 486874837#0 -6481166#8 -6481166#8.162 263669069#0 -6447971#7 -6447971#6 -6467507#3 -6481166#5 6507809#3 6507809#4 6507809#5 6507809#5.51 -6380913#4 -6380913#3 -6380913#3.7 -6380913#3.66 -6380913#3.103 6385341#0 6385341#0.19 6385341#0.20 6385341#0.34 6385341#0.47 6385341#0.50 6385341#0.54 6385341#0.58 6385341#0.73 6385341#0.78 6385341#0.81 6385341#0.84 6385341#0.87 6385341#0.126 6385341#0.138 6384260#2 6384260#3 6384260#3.54 -6487445#4 -6487445#4.15 -6487445#4.55 6415147#0 6415147#0.61 6415147#2 6497081#2 6497081#2.38 6497081#2.47 6497081#2.53 6497081#2.60 6497081#2.67 6497081#2.70 6497081#2.74 6497081#2.81 6497081#2.120 6497081#6 6497081#6.44 -6414318#2 -6414318#2.8 795669782#2 6371720#2 6371720#3 157167355#0"/>
</vehicle>
<vehicle id = "veh19" type= "veh_passenger" depart="14420" >
<route edges =" -814326475#2 -814326475#2.9 -814326475#2.24 -814326475#2.41 -814326475#2.70 -814326475#2.91 -6456052#5 -6456052#5.10 -6456052#5.36 -6456052#5.120 -6456052#1 -6456052#1.10 -6456052#1.62 -607691082#1 -607691082#0 -6475815#3 -6475815#3.2 -6475815#3.17 -6475815#3.46 -428089348#3 -428089348#3.15 -428089348#3.21 -428089348#3.28 -428341218#2 -428341218#2.3 -428341218#2.9 -65588069#1 -65588069#1.13 -428089351#1 -428089351#1.16 -293753570#2 -293753570#2.9 -293753570#2.83 -369877031#7 -369877031#7.10 -369877031#7.98 -369877031#7.191 -749622503#8 -749622503#8.7 -749622503#8.63 -749622503#8.83 -749622503#4 -749622503#4.84 -749622503#2 -749622503#2.9 -749622503#2.29 -749622503#2.64 -749622503#2.84 -6522514#4 -6522514#4.7 -6522514#4.36 -6522514#4.61 -6522514#4.66 -6522514#4.67 -6522514#4.73 -332223490#1 -332223490#1.19 -428088887#1 -428088887#1.12 -428088892 -428088886#1 -428088886#1.24 -428088886#1.35 -428088886#1.45 6463530#0 6463530#0.2 6463530#0.8 6463530#0.13 6463530#0.54 6463530#0.95 6463530#6 6463530#6.6 6463530#6.49 6463530#6.89 -6343878#8 -6343878#8.7 -6343878#8.85 347094714#4 347094714#4.6 347094714#4.48 347094714#4.87 -6435230#5 -6435230#5.17 893868549#7 893868549#7.9 893868549#7.13 893868549#7.94 893868549#7.109 893868549#7.125 893868549#7.184 -6476327#7 -6476327#7.6 -6476327#7.57 -6476327#7.85 -6476327#3 -6476327#3.6 -6476327#3.45 -6476327#3.100 -6476327#3.105 -347092910#2 -347092910#2.9 -347092910#2.11 -347092910#2.14 -347092910#2.40 6397352#0 6397352#0.2 6397352#0.5 6397352#0.9 6397352#0.56 6397352#0.105 -617435761#4 -617435761#4.55 -617435761#4.98 -617435761#4.117 -617435761#4.130 -617435760#4 -617435760#4.12 -617435760#4.51 -617435760#4.53 6343878#0 6343878#0.6 6343878#0.85 6343878#0.89 -893868549#2 -893868549#2.10 -893868549#2.49 -893868549#2.89 -893868549#2.91 -893868549#2.93 -893868549#2.94 6456044#0 6456044#0.1 6456044#0.2 6456044#0.3 6456044#0.4 6456044#0.6 6456044#0.84 6467490#0 6467490#0.7 6467490#0.49 6467490#0.78 -401497115 -401497115.113 -401497115.170 -401497115.214 -428233435 -460425668 -460425668.5 425646007#0 425646007#0.10 425646007#0.17 425646007#0.20 425646007#0.22 425646007#0.27 -724644768 -724644768.35 6402586#0 6402586#0.1 6402586#0.4 6402586#0.6 6402586#0.12 6402586#0.35 6402586#0.59 6415152 6415152.4 6415152.15 6415152.33 6415152.51 6415152.63 6415152.76 6415152.94 6415152.108 6415152.133 6415152.155 858621141#0 858621141#0.35 858621141#0.40 622519661 622519661.8 739874553#0 739874553#0.66 739874553#0.80 739874553#0.88 333370569#0 333370569#0.6 333370569#0.13 333370569#0.37 333370569#0.43 333370569#0.66 333370569#0.94 333370569#0.155 333370569#0.178 333370566#0 333370566#0.32 332223494#0 332223494#0.18 332223494#0.35 332223494#0.144 332223494#0.171 6506833#15 6506833#15.8 6506833#15.10 6506833#15.35 6506833#18 6506833#18.45 -749863323#3 -749863323#3.10 -749863323#3.85 -749863323#3.126 792010738#0 792010738#0.4 792010738#0.9 792010738#0.19 -749863325#1 -749863325#1.6 -749863325#1.16 -749863325#1.39 -749863325#1.43 -749863325#1.51 -749863325#1.75 -749863325#1.82 -749863325#1.101 -749863325#1.117 -749863325#1.139 -749863325#1.157 -749863325#1.165 -749863325#1.172 -749863325#1.175 -749863325#1.187 -749863325#1.189 -749863325#1.199 -749863325#1.212 -749863325#1.248 -749863325#1.271 500021854#0 500021854#0.9 500021854#0.38 500021854#0.82 6477649#6 6477649#6.9 6477649#6.30 6477649#6.32 6477649#6.45 6477649#6.63 6477649#6.92 6477649#6.106 6477649#6.147 6477649#6.175 6477649#6.199 6477649#6.205 6477649#6.230 6477649#6.286 6477649#6.306 6477649#6.322 792010743#2 792010743#2.11 792010743#2.16 573669451#0 573669451#0.28 573669451#0.63 573669451#0.78 573669451#0.83 862387686#0 862387686#0.13 862387686#0.22 -481291008#2 -481291008#2.2 -481291008#2.11 -481291008#2.24 6405732#0 6405732#0.8 6405732#0.12 6405732#0.162 6405732#0.169 6405732#3 6405732#3.8 6405732#3.58 6405732#3.206 332951498#3 332951498#3.7 332951498#3.9 332951498#3.41 332951498#3.77 6496658#0 6496658#0.30 6496658#0.31 -260318962#3 -260318962#3.5 -260318962#1 -260318962#1.73 -6388742#24 -6388742#24.5 -6388742#24.72 -6388742#21 -6388742#21.6 -6388742#21.71 -6388742#18 -6388742#18.5 -6388742#18.14 -6388742#18.22 -6388742#18.33 -6388742#18.42 -6388742#18.52 -6388742#18.64 -6388742#18.73 -6388742#15 -6388742#15.8 -6388742#15.46 -6388742#15.84 263712958#0 263712958#0.8 263712958#0.45 263712958#0.101 263712958#0.114 263712958#0.117 263712958#0.119 6445479#0 6445479#0.4 6445479#0.8 6445479#0.186 965874292#10 965874292#10.35 965874292#12 965874292#12.8 965874292#12.69 158123767#0 158123767#0.10 158123767#0.11 158123767#0.50 158123767#0.74 158123767#0.86 158123767#0.115 158123767#0.122 158123767#0.134 158123767#0.139 158123767#0.166 795669781 795669781.52 795669781.56 460421481#1 460421481#1.61 460421481#1.85 256997441#0 256997441#0.11 256997441#0.18 256997441#0.62 -14374224#3 -14374224#3.37 -14374224#3.41 -14374224#3.85 295783215#1 -6489809#2 -6489809#1 -6489809#1.47 256996977#4 256996977#4.22 256996977#4.24 256996977#4.38 256996977#6 256996977#6.43 256996977#6.78 256996977#8 620762211#0 620762211#0.4 620762211#0.8 620762211#0.77 -6415147#8 -6415147#7 6351349#2 642753173 6354836#3 6354836#4 6354836#5 6354836#5.54 6354836#7 6354836#7.92 6467368#4 6354794#0 6354794#1 6354794#1.121 6354794#3 6354794#3.8 6354794#3.120 754699003#1 754699003#1.6 -6367253#5 -6496652#5 -6496652#5.73 -6351337#2 -6351337#2.7 -6351337#0 -661086629#2 -661086629#2.7 -661086629#0 -185483733 -6414318#4 -157167355#0"/>
</vehicle>
<vehicle id = "veh20" type= "veh_passenger" depart="18025" >
<route edges =" -813722269#3 -813722269#3.7 -813722269#3.48 -813722269#3.84 -813722269#3.86 569505974#0 569505974#0.10 569505974#0.37 816616073#0 816616073#0.78 6343949#3 6343949#3.9 6343949#3.49 6343949#6 65588100#2 65588100#2.20 65588100#2.57 6430729#9 6430729#9.48 6430729#11 6430729#11.51 6430729#13 6430729#13.48 6430729#15 6430729#15.48 6430729#17 6430729#17.51 620762224#1 292812445#9 292812445#9.49 337739268 337739268.124 337739267#0 337818462 337818462.3 337818462.6 337739271#1 337739271#1.6 337739269#0 337739269#1 337739269#1.30 337739269#3 337739269#3.69 -396055523#4 -396055523#4.9 -396055523#4.15 -396055523#4.150 -92170540#0 -92170540#0.2 -460399791#2 -460399791#2.15 -460399791#2.17 -460399791#2.82 -460399791#2.105 465799093#0 465799093#0.8 465799093#0.46 465799093#0.91 337818330 6463035#0 6463035#0.14 6463035#0.38 -6448612#1 -6448612#1.133 -805680044#4 -805680044#4.8 -805680044#4.49 -805680044#4.92 -6360256#15 -6360256#15.7 -6360256#15.133 -6360256#13 -6360256#13.8 -6360256#13.10 -6360256#13.19 -6360256#13.61 -6360256#13.76 -6360256#13.125 -6360256#9 -6360256#9.6 243349944#13 243349944#13.47 243349944#13.51 243349944#15 243349944#15.48 185485132#10 185485132#11 185485132#11.115 805658294#0 805658294#0.38 805658294#0.52 -6494975#9 -6494975#9.13 -6494975#9.24 243349945#11 243349945#11.47 243349945#13 243349945#13.48 6472289#3 -805658294#5 -805658294#5.50 243349942#2 279467136#0 279467136#0.117 279467136#0.122 279467136#1 -170683665#4 -170683665#4.47 6356676#2 6356676#2.67 6356676#2.82 6356676#2.92 6356671#0 6356671#0.13 6356671#0.39 428315591#1 428315591#2 428315591#2.6 428315591#2.15 428315591#2.25 428315591#2.59 428315591#2.76 -912599281#1 -912599281#1.10 -912599281#1.25 -912599281#1.45 -40416127#2 -40416127#2.7 -40416127#2.26 40416130#0 40416130#1 6353867#1 6414237#1 6414237#2 6414237#2.7 6414237#2.43 6414237#2.81 -243352868#3 -243352868#3.6 -243352868#1 -243352868#1.19 -170683665#11 -170683665#11.54 -170683665#8 -170683665#7 -6349133#1 -6349133#0 336908262#2 336908262#2.49 -160624558#4 -160624558#4.98 -160624558#2 243349945#17 359671039#7 359671039#7.74 805658294#9 805658294#9.71 808266757#0 808266757#0.7 352434874#4 352434874#4.20 352434874#4.33 352434874#4.43 352434874#4.55 352434874#4.68 352434874#4.74 6474773#1 6474773#1.19 6474773#1.72 6474773#1.81 -263665040#4 -263665040#4.9 -263665040#4.18 -263665040#4.27 -263665040#4.36 -263665040#4.45 -263665040#4.54 -263665040#4.63 -263665040#4.72 -263665040#4.82 808266757#2 808266757#2.40 808266757#4 808266757#4.120 808266757#6 6468802#6 -336908261#1 -336908261#1.8 -336908261#1.34 -336908261#1.75 6521060#0 6521060#0.43 6472195#0 6472195#0.10 6472195#0.14 6472195#0.18 6472195#0.42 6472195#0.49 6472195#0.55 6472195#0.56 6472195#0.62 6472195#0.71 6463022#4 6463022#4.52 6463022#4.58 6463022#4.66 642739853 642739853.63 642739853.66 6516132 6516132.2 6516132.5 6516132.73 6516132.82 6516132.90 6463022#7 6463022#7.24 6463022#7.39 6463022#7.50 -8071849#2 -8071849#2.11 -8071849#2.20 -8071849#1 -8071849#1.124 -8071849#1.147 -8071849#1.171 -6354200#1 -6343958#2 -337698847#1 -379811772#3 -379811772#3.95 -379811772#3.97 -379811772#3.160 -379811772#3.180 -379811772#3.212 -379811772#3.234 -379811772#3.256 -379811772#3.281 -379811772#3.302 -379811772#3.325 -6447459 6468802#2 6468802#2.5 6468802#2.11 6468802#2.21 6468802#3 6468802#3.17 6468802#3.25 6468802#3.32 6468802#3.72 6468802#3.76 6468802#3.80 6468802#3.83 6468802#3.156 6468802#3.211 -6343958#0 -336908257#8 -243349944#32 -243349944#31 -243349944#31.42 -243349944#29 -243349944#28 -352434874#1 6447445#17 -460419010 -460419010.105 -460419010.122 -352434856 -352434856.9 -460419027 352434864#0 352434864#0.8 -243349941#5 -243349941#4 -6336174#6 243349331#1 243349331#1.24 -6464130#5 -6464130#4 6449970#11 6449970#12 -438895608#1 359671039#4 359671039#4.117 -6447445#14 -6447445#13 -6447445#13.40 -6447445#11 -22760521#2 -22760521#2.81 -22760521#2.121 428246847#0 428246847#0.8 428246847#0.22 6386110#0 6386110#0.16 6386110#0.25 6386110#0.55 -243349338#6 -243349338#6.14"/>
</vehicle>
<vehicle id = "veh21" type= "veh_passenger" depart="18025" >
<route edges =" -816616074#1 -816616074#1.10 -816616074#1.14 -816616074#1.119 428341734#4 428341734#4.8 428246439#0 428246439#0.14 569505976#0 569505976#0.10 569505976#0.14 569505976#0.41 569505976#0.120 620762213#0 620762213#0.9 620762213#0.88 57883609#0 57883609#0.6 57883609#0.57 -826314455#3 -826314455#3.64 -826314455#3.71 -826314455#3.76 -826314455#3.90 -826314455#3.118 -349901821 349901822#0 349901822#0.9 96029553#0 96029553#0.9 96029553#0.15 96029553#0.59 -893866066#2 -893866066#2.7 -893866066#2.122 -353690150#2 -353690150#2.8 -353690150#2.144 293775902#0 293775902#0.7 293775902#0.52 293775902#0.90 -22917111#19 -22917111#19.8 -22917111#19.123 -22917111#19.125 -22917111#19.126 6464138#4 6464138#4.6 6464138#4.51 6464138#4.88 6464138#8 6464138#8.7 6464138#8.49 6464138#8.88 6464138#12 6464138#12.51 6464138#14 -481291488#1 6464126#0 6464126#0.46 6464126#0.49 -460419011#1 -460419011#1.97 243339793#2 243339793#2.49 -801995082 481291014#0 481291014#0.53 -460419028#7 -460419028#7.7 -460419028#7.33 -460419028#7.45 243339793#5 6360256#1 6360256#1.7 6464126#7 6464126#7.50 22917113#2 243349338#2 185485132#5 185485132#5.98 256994205#2 256994205#2.24 256994205#2.72 -6494975#4 -6494975#4.53 243349338#5"/>
</vehicle>
<vehicle id = "veh22" type= "veh_passenger" depart="18025" >
<route edges =" 817434294 817434294.10 817434294.36 817434294.44 817434294.63 817434294.119 816616072#4 816616072#4.7 816616072#4.62 816616072#4.121 6430729#0 6430729#0.7 6430729#0.86 -813722270#4 -813722270#4.8 -813722270#4.54 -813722270#4.55 -813722270#4.87 -813722270#4.122 -816616073#1 -816616073#1.7 -569505974#1 -569505974#1.6 -569505974#1.33 -569505976#2 -569505976#2.9 -569505976#2.88 -569505976#2.115 -569505976#2.119 -569505978#1 -569505978#1.10 -569505979 -569505979.32 -569505979.79 -395714916#1 -395714916#1.12 -568043367 -568043367.41 -568043367.79 893866065#0 893866065#0.10 893866065#0.66 893866065#0.92 893866065#3 893866065#3.6 893866065#3.48 893866065#3.88 -353690148#6 -353690148#6.8 -353690148#6.122 -353690148#3 -353690148#3.7 -353690148#3.59 -353690148#3.121 -353690147#3 -353690147#3.7 -353690147#3.110 -353690147#3.122 -486864438#4 -486864438#4.7 -486864438#4.89 -243338979#12 -243338979#12.10 -243338979#12.11 -243338979#12.62 -243338979#9 -243338979#9.5 -243338979#9.31 -243338979#6 -243338979#6.31 -243338979#6.61 -486844941#1 -486844941#1.10 -486844941#1.46 -486844941#1.58 -486844941#1.70 -486844941#1.89 -436480243#3 -436480243#3.10 -436480243#3.19 -436480243#3.38 -6435230#9 6376376#0 6376376#0.9 6376376#0.35 6376376#0.88 6376376#0.97 6376376#4 6376376#4.5 6376376#4.86 -6476327#11 893868547#0 893868547#0.8 893868547#0.91 -893868548#2 -893868548#2.7 -893868548#2.85 -893868550#2 -893868550#2.7 -893868550#2.86 901477545#0 901477545#0.8 901477545#0.89 22917110#0 22917110#0.5 22917110#0.85 901474739#3 901474739#3.6 901474739#3.41 901474739#3.71 901474739#7 901474739#7.8 901474739#7.82 901474742#0 901474742#0.6 901474742#0.45 901474742#0.83 6467507#0 6467507#0.7 6467507#0.88 6467507#3 6467507#4 6467507#4.48 6467507#6 6467507#6.51 6380913#6 6380913#6.41 6463536#0 6463536#0.21 6463536#0.30 6463536#0.40 6463536#0.47 6463536#0.52 6463536#0.58 6463536#0.69 6463536#0.79 6463536#0.80 6516509#4 6516509#4.6 6516509#4.33 6516509#4.47 6516509#4.52 6516509#4.66 6516509#4.84 6516509#8 6516509#8.7 6516509#8.85 6507809#10 6507809#10.8 6507809#10.91 6507809#13 6507809#13.9 6507809#13.77 -6452520#5 -6452520#5.4 -6452520#5.85 169917351#19 169917351#19.6 169917351#19.71 169917351#22 169917351#22.7 169917351#22.72 -6494970#2 -6494970#2.4 -6494970#2.100 6358721#0 6358721#0.9 -6415147#3 -6415147#2 6449462#3 6449462#3.7 6449462#3.50 6449462#3.60 6449462#3.72 6449462#3.87 795669782#0 795669782#0.54 6414318#1 6414318#1.86 6497081#8 6371720#3 157167355#0"/>
</vehicle>
<vehicle id = "veh23" type= "veh_passenger" depart="18025" >
<route edges =" -814326475#2 -814326475#2.9 -814326475#2.24 -814326475#2.41 -814326475#2.70 -814326475#2.91 -723013181#2 -723013181#2.9 -723013181#2.18 -723013181#2.38 -723013181#0 -332601014#3 -332601014#3.31 -332601014#3.36 -332601014#3.42 -428246441#2 -428246441#2.2 -428246441#2.10 -723013876#1 -723013876#1.12 -723013876#1.18 -723013877 158612542#8 158612542#8.37 158612542#8.77 158612542#8.79 158612542#11 158612542#11.75 158612542#11.76 158612542#13 158612542#13.18 158612542#13.36 95600805#0 95600805#0.117 -548654006#1 -548654006#1.9 -548654006#1.38 -548654006#1.47 -548654006#1.55 6358524#0 6358524#0.10 6358524#0.125 171739214#0 171739214#0.4 171739214#0.56 752851600#4 752851600#4.6 752851600#4.8 752851600#4.28 752851600#4.34 752851600#4.35 752851600#4.38 752851600#4.44 752851600#4.97 6464391#3 6464391#3.6 6464391#3.75 6358524#6 6358524#6.5 6358524#6.55 6414229#12 752851600#11 752851600#11.84 6346308#10 6346308#10.28 6346308#10.34 621283354 158882561#0 158882561#0.63 158882561#0.77 158882561#0.95 158882561#0.112 158882561#3 6400858#0 6400858#0.3 6400858#0.7 6400858#0.11 6400858#0.15 6400858#0.58 428098973 428098976#0 428098976#0.28 428098976#0.31 428098976#3 428098976#3.15 428098976#3.23 -8071658#2 -8071658#1 -8071658#1.35 -6384935#5 -6384935#5.4 -6384935#3 -6384935#3.145 -8071895#0 -6358515#0 -8071894#0 -6368518#5 -6368518#5.49 749754758#11 749754758#11.121 621088606#0 621088606#1 51476458 6366765#0 6366765#0.3 6366765#0.7 6366765#0.10 6366765#0.14 6366765#0.17 6366765#0.86 6366765#0.127 6366765#0.141 -6368518#1 -6368518#1.50 -6368518#1.97 -6368518#1.99 -6508650#4 -6508650#4.2 -6508650#4.3 6346308#0 6346308#0.52 6346308#2 6346308#2.46 -749754758#9 -749754758#9.120 -749754758#7 -749754758#7.3 -749754758#7.122 -6464391#12 -6464391#12.4 -6464391#12.46 -6464391#12.88 -6374789#8 -6374789#8.5 -6374789#8.120 -6374789#5 -6374789#5.9 -6374789#5.118 -749754754#0 -749754754#0.11 -749754753#1 -749754753#1.8 -749754753#1.9 -749754753#1.11 -749754753#1.13 -749754753#1.14 -749754753#1.15 -749754753#1.17 -749754753#1.19 -749754753#1.23 -749754753#1.26 -749754753#1.33 -749754753#1.55 -749754753#1.75 -749754753#1.77 -6479778#2 -6349048#2 -6349048#2.8 -6349048#2.90 6366765#21 6366765#21.3 6366765#21.24 6366765#21.30 6366765#21.34 6366765#21.38 6366765#21.40 6366765#21.42 6366765#21.43 6366765#21.72 460423542#0 460423542#0.9 6430733#0 460421473#2 460421473#2.62 393047811 -8071579 -6511393#8 6343952#2 -6349123#7 -6349123#6 -6349123#6.48 -6349123#6.62 -6349123#6.115 -723052304#0 -723052303 -568586006 -568586005 -568586003 -568586003.29 -568586003.32 -568586003.36 -568586003.39 -568586003.43 -568586003.46 -568586003.50 -568586003.65 -749622503#35 -749622503#35.9 -749622503#35.13 -749622503#35.52 -749622503#35.58 -749622503#35.118 -749622503#35.124 -912290518#12 -912290518#12.6 -912290518#12.9 -912290518#12.11 -912290518#12.12 -912290518#12.53 -6511397#14 -6511397#14.3 -6511397#14.5 -6511397#14.7 -6511397#14.9 -6511397#14.18 -6511397#14.65 -6511397#10 -6511397#10.7 -6511397#10.83 -759056694#6 -759056694#6.7 -759056694#6.25 -759056694#6.49 -759056694#6.89 -759056694#2 -759056694#2.7 -759056694#2.25 -759056694#2.48 162631002#0 162631002#0.17 162631002#0.23 162631002#0.27 162631002#0.28 162631002#0.29 162631002#0.30 162631002#0.32 162631002#0.33 738637223#0 738637223#0.15 -165042063#1 -165042063#1.3 -165042063#1.13 -165042063#1.15 -759056491 -759056491.4 -759056491.8 -759056491.13 -759056491.17 -759056491.21 -759056491.26 -759056491.41 -759056491.81 -759056491.83 -759056491.88 -337673342#5 -337673342#5.3 -337673342#5.9 -337673342#5.13 -337673342#5.21 -337673342#5.35 -337673342#5.72 -607691082#1 -607691082#0 -6475815#3 -6475815#3.2 -6475815#3.17 -6475815#3.46 -428089348#3 -428089348#3.15 -428089348#3.21 -428089348#3.28 -353690151#5 -353690151#5.11 -353690151#5.12 -353690151#5.26 -353690151#5.83 -353690151#5.102 -353690151#2 -353690151#2.9 -353690151#2.22 -353690151#2.24 -353690151#2.39 -353690151#2.72 -353690151#2.92 -433500388#1 -433500388#1.11 -433500388#1.46 -433500388#1.73 -433500388#1.113 -433500388#1.115 -428088900#1 -428088900#1.10 -428088894#1 -428088894#1.25 -532166310#2 -532166310#2.3 -532166310#2.13 -369877039 -369877039.36 -369877039.55 -428088903#1 -428088903#1.15 428231018#0 428231018#0.12 428231018#0.30 465971497#0 465971497#0.10 465971497#0.34 369877037#0 369877037#0.9 369877037#0.83 537686684#0 537686684#0.43 537686684#0.53 -332223489#3 -332223489#3.4 -332223489#3.15 -332223489#3.17 -332223489#3.21 -401497115 -401497115.113 -401497115.170 -401497115.214 -428233435 -460425668 -460425668.5 -6457806#2 -6457806#2.21 -6457806#2.25 -6457806#2.30 6465162#0 6465162#0.2 6465162#0.6 6465162#0.11 6465162#0.36 428233434 428233434.31 428233434.58 332223487#0 332223487#0.16 332223487#0.62 332223487#0.98 332223488 332223488.25 332223488.48 332223488.65 332223488.68 332223488.88 347092907#0 347092907#0.3 347092907#0.13 347092907#0.19 347092907#0.26 347092907#0.31 347092907#0.38 347092907#0.40 347092907#0.45 347092907#0.51 332223494#0 332223494#0.18 332223494#0.35 332223494#0.144 332223494#0.171 6506833#15 6506833#15.8 6506833#15.10 6506833#15.35 49394452#5 49394452#5.6 49394452#5.186 49394452#8 49394452#8.8 49394452#8.188 -6388742#2 -6388742#2.30 -6388742#2.38 965874292#7 965874292#7.8 965874292#7.41 965874292#10 965874292#10.35 965874292#12 965874292#12.8 965874292#12.69 158123767#0 158123767#0.10 158123767#0.11 158123767#0.50 158123767#0.74 158123767#0.86 158123767#0.115 158123767#0.122 158123767#0.134 158123767#0.139 158123767#0.166 795669781 795669781.52 795669781.56 6497081#6 6497081#6.44 6414318#3 -157167355#0"/>
</vehicle>
<vehicle id = "veh24" type= "veh_passenger" depart="21630" >
<route edges =" -813722269#3 -813722269#3.7 -813722269#3.48 -813722269#3.84 -813722269#3.86 569505974#0 569505974#0.10 569505974#0.37 816616073#0 816616073#0.78 6343949#3 6343949#3.9 6343949#3.49 620762212#3 620762212#4 620762212#4.122 -171739207#1 -171739207#1.50 6411908#0 337668916#6 337668916#6.37 337668916#6.48 160552467#1 160552467#1.43 160552467#1.66 160552467#1.99 160552467#1.104 160552467#1.111 171739214#15 171739214#15.31 171739214#15.57 6403883#1 -158882505#6 -158882505#5 -158882505#5.47 6411908#3 158882517#3 158882517#4 6403883#3 6403883#4 6368504#0 6368504#1 6368504#1.33 6457203#14 6457203#14.21 6457203#15 6457203#15.68 975126260#0 975126260#0.49 975126260#2 975126260#2.48 603522173#0 603522173#0.48 -6513783#9 -6513783#8 -6513783#7 -6513783#6 757399066#0 757399066#0.51 757399066#0.87 -6381494#6 -6381494#6.57 -6381494#6.77 -6381494#6.94 -6384359#9 -6384359#9.16 -6384359#8 -6513783#4 -6513783#4.21 -6513783#4.23 -6513783#4.43 -6513783#4.80 -6513783#1 -6513783#1.10 962517344 962517344.33 -6381494#0 292812445#9 292812445#9.49 337739268 337739268.124 337739267#0 337739267#1 337739271#0 337739271#0.10 337739271#0.13 337739271#1 337739271#1.6 337739269#0 -460419011#4 -460419011#3 40416132#1 40416132#1.90 256994206#0 256994206#0.8 256994206#0.43 256994206#0.60 396055524#0 396055524#0.9 396055524#0.30 396055524#0.54 396055524#0.65 -6360256#4 243349338#1 22917113#3 256994205#1 256994205#2 256994205#2.24 256994205#2.72 256994205#3 428246847#0 428246847#0.8 428246847#0.22 6386110#0 6386110#0.16 6386110#0.25 6386110#0.55 -243349338#6 -243349338#6.14"/>
</vehicle>
<vehicle id = "veh25" type= "veh_passenger" depart="21630" >
<route edges =" -816616074#1 -816616074#1.10 -816616074#1.14 -816616074#1.119 428341734#4 428341734#4.8 428246439#0 428246439#0.14 428246438#0 428246438#0.8 428246440#0 428246440#0.62 800744529#0 800744529#0.7 800744529#0.52 800744529#0.89 825336588#0 825336588#0.7 349901822#2 349901822#2.21 332092195#0 332092195#0.9 332092195#0.74 -22917111#30 -22917111#30.9 -22917111#30.50 -22917111#30.96 -22917111#26 -22917111#26.7 -22917111#26.41 -22917111#26.121 32135548#5 32135548#5.7 32135548#5.49 32135548#5.88 -6440371#11 -6440371#11.12 -6440371#11.144 293775902#8 293775902#8.6 293775902#8.49 293775902#8.91 -6512920#7 -6512920#7.4 -6512920#7.122 -6512920#7.124 6464138#12 6464138#12.51 6464138#14 -481291488#1 -481291488#0 -481291488#0.69 -481291488#0.82 -6447971#10 -6447971#10.11 486874837#2 486874837#2.47 -460419014 -460419014.67 -460419007#0 -460419007#0.17 -460419007#0.46 460419008#0 460419008#0.50 460419008#2 460419008#2.37 460419008#2.41 460419008#2.47 460419008#2.65 -460419024#7 -460419024#7.10 -460419024#7.16 -460419024#7.29 -460419024#4 -460419024#4.23 -460419024#4.72 -460419024#4.91 -460419024#4.105 -460419024#4.115 -460419028#7 -460419028#7.7 -460419028#7.33 -460419028#7.45 243339793#5 243339793#6 243339793#6.50 243339793#6.74 243339793#9 243339793#9.48 185485132#3 185485132#3.10 6464126#11 6464126#11.50 6494975#2 243349338#5"/>
</vehicle>
<vehicle id = "veh26" type= "veh_passenger" depart="21630" >
<route edges =" 817434294 817434294.10 817434294.36 817434294.44 817434294.63 817434294.119 816616072#4 816616072#4.7 816616072#4.62 816616072#4.121 816616072#8 816616072#8.6 816616072#8.121 6346526#0 6346526#0.6 6346526#0.99 6346526#0.121 -337668916#3 -337668916#3.10 -337668916#3.49 -337668916#3.92 337668911#0 337668911#0.7 337668911#0.37 337668911#0.90 -171739214#9 8071890#0 8071890#0.56 158882505#0 158882505#0.42 158882505#2 6346524#1 158882517#2 6411908#4 158882511#4 -160552467#9 -160552467#8 158882505#6 158882505#7 -6469837#1 -6469837#1.51 171739214#21 171739214#21.8 171739214#21.28 171739214#21.32 -6457203#0 -8071899 -337668916#11 -337668916#11.23 -337668916#11.39 -337668916#10 -6403874#0 -65588100#6 -65588100#6.7 6430729#9 6430729#9.48 8071898#2 8071898#3 620762214 -349901822#3 -349901822#3.58 -349901822#1 -349901822#1.38 -826314456#4 -826314456#4.12 -826314456#4.19 -826314456#4.65 -826314456#4.106 -337673339 -337673337 185882764 185882764.13 185882764.14 185882765 185882765.16 185882765.26 185882765.30 185882765.31 395933841 164418944#0 164418944#0.13 164418944#0.18 164418944#0.32 164418944#0.39 -353690148#9 -353690148#9.7 -353690148#9.10 -353690148#9.12 -353690148#9.13 -353690148#9.38 -353690148#9.143 893866065#7 893866065#7.7 893866065#7.48 893866065#7.90 -893866064#2 -893866064#2.7 -893866064#2.122 -893866059#2 -893866059#2.7 -893866059#2.120 -893866059#2.121 -893866057 -893866057.8 -893866057.9 -893866057.122 -353690152#2 -353690152#2.8 -353690152#2.89 -6476327#20 -6476327#20.8 -6476327#20.163 -6476327#20.182 -6476327#20.195 486844942#4 486844942#4.7 486844942#4.31 486844942#4.73 486844942#4.89 353690160#0 353690160#0.6 353690160#0.88 353690160#3 353690160#3.6 353690160#3.90 179552384#0 179552384#0.7 179552384#0.28 179552384#0.44 179552384#0.49 179552384#0.89 -512168130#2 -512168130#2.10 -512168130#2.12 -512168130#2.65 -512168130#2.197 6467507#0 6467507#0.7 6467507#0.88 6467507#3 6467507#4 6467507#4.48 6467507#6 6467507#6.51 6467507#8 6467507#8.87 6516509#8 6516509#8.7 6516509#8.85 6516509#11 6516509#11.6 6516509#11.34 6516509#11.86 6516509#15 6516509#15.7 6516509#15.35 6516509#15.48 6516509#15.68 6516509#15.70 6516509#15.79 6516509#15.84 6516509#15.98 6516509#15.101 256996976#0 256996976#0.11 256996976#0.20 256996976#0.46 256996976#0.79 256996976#3 256996976#3.7 256996976#3.76 6449462#0 6449462#0.9 6449462#0.46 6449462#3 6449462#3.7 6449462#3.50 6449462#3.60 6449462#3.72 6449462#3.87 795669782#0 795669782#0.54 -6414318#0 -6414318#0.76 -6414318#0.81 460418987#0 460418987#0.4 460418987#0.8 -6414273#1 -6414273#1.22 -460418992#4 -460418992#4.6 -460418992#4.125 -460418992#2 -460418992#2.50 -460418992#2.92 -337742188#11 -337742188#11.8 -337742188#11.28 -337742188#11.102 -337742188#8 -337742188#8.6 -337742188#8.83 -337742188#8.106 -337742188#8.123 -337742188#8.140 -337742188#8.159 -337742188#5 -337742188#5.9 -337742188#5.19 -337742188#5.37 -337742188#5.56 -337742188#5.67 -337742188#5.78 -337742188#5.104 -337742188#5.128 6430364#0 6430364#0.9 6430364#0.41 6430364#0.82 -22917667#6 -22917667#6.7 -22917667#6.62 -22917667#4 -22917667#4.168 -22917667#2 -22917667#2.6 -22917667#2.102 460418978#0 460418978#0.8 460418978#0.76 795846818#2 795846818#2.7 795846818#2.14 795846818#2.102 22917670#10 22917670#10.5 22917670#10.34 481291010#3 481291010#3.6 481291010#3.100 -6497081#10 -6497081#10.7 6371720#3 157167355#0"/>
</vehicle>
<vehicle id = "veh27" type= "veh_passenger" depart="21630" >
<route edges =" -814326475#2 -814326475#2.9 -814326475#2.24 -814326475#2.41 -814326475#2.70 -814326475#2.91 -6456052#5 -6456052#5.10 -6456052#5.36 -6456052#5.120 -6456052#1 -6456052#1.10 -6456052#1.62 -337673342#0 6343890#0 6343890#0.54 6343890#0.56 6343890#0.58 6343890#0.59 6343890#0.61 -6475815#6 -6475815#6.16 -6475815#4 -6475815#3 -6475815#3.2 -6475815#3.17 -6475815#3.46 -428089348#3 -428089348#3.15 -428089348#3.21 -428089348#3.28 -428341218#2 -428341218#2.3 -428341218#2.9 -65588069#1 -65588069#1.13 -428089351#1 -428089351#1.16 -428089352#1 -428089352#1.12 -428089350 -428089350.17 -428089350.43 -428227812#1 -428227812#1.9 -428227851#1 -428227851#1.5 -13726934#1 -13726934#1.5 -428227808 -428227847#1 -428227847#1.17 -749622503#15 -749622503#15.9 -749622503#15.31 -749622503#15.46 -749622503#15.51 -749622503#15.67 -749622503#15.85 -749622503#8 -749622503#8.7 -749622503#8.63 -749622503#8.83 -749622503#4 -749622503#4.84 369877024#3 369877024#3.6 369877024#3.87 369877024#3.91 369877024#3.98 369877024#3.100 369877024#3.103 369877024#3.104 -428088900#1 -428088900#1.10 -428088894#1 -428088894#1.25 -428088883#1 -428088883#1.15 -428088897 -428088888 -737711647 -332223490#1 -332223490#1.19 -465971498#3 -465971498#3.2 -465971498#3.3 -465971498#3.5 -465971498#3.7 -465971498#3.10 -465971498#3.34 -465971498#3.84 369877037#0 369877037#0.9 369877037#0.83 537686684#0 537686684#0.43 537686684#0.53 -332223489#3 -332223489#3.4 -332223489#3.15 -332223489#3.17 -332223489#3.21 -401497115 -401497115.113 -401497115.170 -401497115.214 -428233435 -460425668 -460425668.5 -6457806#2 -6457806#2.21 -6457806#2.25 -6457806#2.30 6465162#0 6465162#0.2 6465162#0.6 6465162#0.11 6465162#0.36 428233434 428233434.31 428233434.58 -739874554#2 -739874554#2.15 -739874554#2.40 -739874554#2.60 -739874554#2.67 622519661 622519661.8 347092914#0 347092914#0.10 347092914#0.14 347092914#0.24 347092914#0.54 347092914#0.75 347092914#0.87 893872038 893872038.9 893872038.14 893872038.97 893872038.123 893872038.129 893872038.134 6405076#3 6405076#3.4 6405076#3.8 6405076#3.14 6405076#3.20 6405076#3.50 6405076#3.68 6405076#3.84 6405076#6 6405076#6.6 6405076#6.21 6405076#6.26 6405076#6.33 6405076#6.44 6405076#6.49 6405076#6.65 6405076#6.68 6405076#6.71 6405076#6.77 6405076#6.79 6405076#6.82 6405076#6.87 256996971#0 256996971#0.7 256996971#0.23 256996971#0.32 256996971#0.37 256996971#0.85 6458014#0 6458014#0.8 6458014#0.84 22917663#6 22917663#6.6 22917663#6.34 22917663#6.58 22917663#6.88 6506833#5 6506833#5.9 6506833#5.46 6506833#5.50 6506833#5.72 6506833#5.85 347092915#6 347092915#6.6 347092915#6.44 347092915#6.87 -6465130#6 -6465130#6.8 -6465130#6.47 -6465130#6.84 -6465130#2 -6465130#2.8 -6465130#2.84 6440364#0 6440364#0.8 6440364#0.26 6440364#0.98 6440364#0.103 901477545#7 901477545#7.5 901477545#7.83 -901474740#3 -901474740#3.7 -901474740#3.53 -901474740#3.61 -901474740#3.102 243338978#0 243338978#0.9 243338978#0.58 243338978#0.71 243338978#4 243338978#4.8 243338978#4.84 243338978#7 243338978#7.8 243338978#7.38 243338978#7.45 243338978#7.74 965874293#0 965874293#0.9 965874293#0.40 965874293#2 965874293#2.45 760645196#0 760645196#0.8 760645196#0.188 6388742#6 6388742#6.5 6388742#6.25 6388742#6.46 6388742#6.62 6388742#6.83 263712958#0 263712958#0.8 263712958#0.45 263712958#0.101 263712958#0.114 263712958#0.117 263712958#0.119 6445479#0 6445479#0.4 6445479#0.8 6445479#0.186 965874292#10 965874292#10.35 965874292#12 965874292#12.8 965874292#12.69 158123767#0 158123767#0.10 158123767#0.11 158123767#0.50 158123767#0.74 158123767#0.86 158123767#0.115 158123767#0.122 158123767#0.134 158123767#0.139 158123767#0.166 795669781 795669781.52 795669781.56 460421481#1 460421481#1.61 460421481#1.85 256997441#0 256997441#0.11 256997441#0.18 256997441#0.62 14374224#4 14374224#4.44 14374224#4.54 14374224#4.84 14374224#4.122 -6414318#4 -157167355#0"/>
</vehicle>
</routes>
