<?xml version="1.0" encoding="UTF-8"?>
<routes xmlns:xsi="http: // www.w3.org/2001/XMLSchema-instance" xsi:noNamespaceSchemaLocation="http: // sumo.dlr.de/xsd/routes_file.xsd">
<vType id="veh_passenger" vClass="passenger"/>

<vehicle id = "veh0" type= "veh_passenger" depart="0" >
<route edges =" -45342801#4 -45342801#3 -45342801#2 -45342801#1 -45342801#0 45342798#2 45342798#3 45342798#4 45342798#5 45342813#0 45342813#1 45342813#2 -45342814#1 44740902#11 44740902#12 44740902#13 44740902#14 44740902#14.81 44740902#14.94 -874839172#0 -44740943 -313316091#20 951438760#0 951438760#1 -44740929#4 -951438759 44740922#2 44740922#2.25 44740953#0 44740953#2 44740953#3 44740953#4 44740953#5 44740953#6 44740953#7 44740949#2 -44740919#1 -44740919#0 44740920#8 -313316091#0 -313316091#0.27 -313316091#0.72 -313316091#0.80 -971495601#9 -971495601#9.28 -971495601#8 -971495601#7 -971495601#6 -971495601#5 -971495601#3 -971495601#1 -971495601#0 -313316086 -44739144#26 -44739144#24 -44739144#22 -44739144#21 -44739144#20 -44739144#19 -44739144#19.14 -44739144#18 -877398366#21 -877398366#20 -877398366#19 -877398366#18 -877398366#17 -877398366#17.7 -877398366#16 -877398366#15 -877398366#15.29 -877398366#14 -877398366#14.72 -877398366#13 -671191680#14 -671191680#13 -671191680#11 -671191680#9 -671191680#8 -671191680#6 -896786326#1 -896786326#0 -896786328#0 -896786328#0.177 -951951638#10 -951951638#10.18 -951951638#9 -951951638#8 -951951638#7 -951951638#5 -951951638#4 -951951638#3 -951951638#2 -951946794#1 -951946794#0 951946792#1 896786337#8 896786337#8.8 -951887683 -951887684 -951887682#6 -951887682#5 -951887682#4 -951887682#3 951887692 -951887691#0 -951887682#0 -951887700#14 -951961240#3 -951961240#1 -951961245 951891772#0 -951891773 -951891771#0"/>
</vehicle>
<vehicle id = "veh1" type= "veh_passenger" depart="0" >
<route edges =" 45342801#5 45342801#5.32 902433317#3 902433317#4 902433317#6 902433317#7 902433317#8 902433317#8.29 951368593#1 972507120#2 45342812#0 45342812#1 45342811#2 45342811#2.66 45344273#23 45344273#23.11 45344273#24 -897252873#2 -897252873#1 -897252873#1.42 -897252873#0 -897252873#0.25 897252876#4 45344320#2 45344320#3 -45344331#4 45344327#1 903341090 -45344335#4 -950235690#1 -950235690#0 -950235690#0.14 700254525#11 700254524#0 700254523 -700254525#0 45344272#4 950233988#0 45344283#9 45344283#10 45344283#10.15 45344283#10.46 45344283#10.69 45344283#10.88 45344283#10.150 45344283#10.196 45344283#10.260 45344283#10.377 45344283#10.468 45344283#10.514 670655885 670655885.12 896892975 971495602#12 971495602#12.26 971495602#12.77 951442813 951442812#0 -896786335#50 -896786335#49 -896786335#48 -896786335#48.15 -896786335#47 -896786335#46 -896786335#44 -896786335#44.9 -896786335#44.71 -896786335#43 -896786335#42 -896786335#42.22 -896786335#41 -896786335#40 -896786335#39 -896786335#39.27 -896786335#37 -896786335#36 -896786335#34 -896786335#33 -896786335#32 -896786335#32.17 -896786335#31 -896786335#31.22 -896786335#30 -896786335#29 -896786335#29.17 -896786335#28 -896786335#27 -896786335#27.19 -896786335#26 -951995494#1 -951995491#2 -951995491#1 -951995491#0 -896786266#12 909024250#0 909024250#1 909024250#2 909024250#4 909024250#5 909024250#6 909024239#0 909024239#1 909024239#1.17 909024239#2 909024239#2.40 -951983585 -951975994 -896786324#1 -896786324#0 -896786324#0.19 -896786324#0.132 -896786324#0.177 951951639#0 951946803#0 951946795#1 951946795#2 951946795#3 951946795#4 951946795#6 951946795#7 951946795#9 951946795#10 951946795#11 951946795#11.34 951946795#11.40 951946795#11.45 896786337#10 896786337#10.21 -951887700#20 -951887700#19 -671756019#4 -951961235 951961234#1 -951878265#2 -951878265#1 -951878265#0 951878264#2 -951878263#3 -951878266#4 -951878266#4.37 -951878266#2 -951878266#1 -951878266#1.39 -951878266#1.47"/>
</vehicle>
<vehicle id = "veh2" type= "veh_passenger" depart="0" >
<route edges =" 951370989 951370989.40 951370989.47 951370989.53 951370989.56 951370989.62 951370989.64 951370989.67 -902433320#1 -902433320#0 902433321#2 45342799#21 45342809#0 45342809#1 45342809#2 45342809#3 45342809#4 45342809#5 45342809#6 45342809#7 45342809#8 44740885#10 -45342826#1 -45342826#0 45342825#1 45342825#2 45342828#0 45342828#1 45342828#1.100 -45344273#6 -45344273#6.40 -45344273#6.59 -951384598#3 -951384598#2 -951404491 -951404491.16 -951404491.28 -951404491.40 -951404491.51 -951384599#0 700249213#9 700249213#10 700249213#11 45342808#10 45342808#11 45342808#11.24 45342808#12 -897252871 -897252870 -45344310#2 -45344310#1 -45344310#0 -45344310#0.10 -45344310#0.18 -45344310#0.30 -45344310#0.41 -45344310#0.52 971495602#8 971495602#8.24 971495602#8.86 -313316104#6 -45378650#5 -45378650#5.11 -45378650#4 45378645#0 45378645#0.44 -908846596#3 -908846596#2 45378650#1 -908846593 -908846593.73 908560901#8 908560901#8.23 908560901#8.56 -313316104#0 -313316082 -45378649#12 896786296#0 896786296#1 896786296#1.36 -896786262#6 -896786262#6.15 -896786262#5 -896786262#4 -896786262#4.31 -896786262#3 -896786262#3.9 -896786262#1 -896786262#0 -896786262#0.33 -896786262#0.115 -896786260#1 -896786260#1.5 -896786260#0 -896786260#0.52 896786257#4 909024248 909024248.50 -45378665#3 -45378665#3.29 -45378665#3.50 -45378665#2 -45378665#2.36 -45378665#1 -45378665#0 -45378665#0.39 -45378665#0.75 -896786335#14 -896786335#14.27 -896786335#13 -896786335#12 -896786335#12.15 -896786335#11 -896786335#10 -896786335#10.38 -951976010#1 -951976011#0 896786321#2 -896786320#3 -896786320#3.5 -896786320#1 -896786320#0 -896786316#3 -896786316#2 -896786316#1 -896786316#1.33 -896786314 -951930663#1 -951930663#0 -877395784#11 -877395784#11.58 951946825#0 951946825#1 -951946816#4 951946844 877399011#1 951946810#2 -896786337#14 -896786337#14.40 -896786337#14.111 -952365020 -952365021 -951878231#2 -951951643#6 -951951643#5 -951951643#4 -951951643#3 -951951643#2 876509484#2 -951951642#1 -951951642#0 -951878263#5 -951878269#15 -951891772#2 -951891774 951891771#2 951878270#2 877401978#0 877401978#1 951878266#0"/>
</vehicle>
<vehicle id = "veh3" type= "veh_passenger" depart="3605" >
<route edges =" -45342801#4 45342799#23 672813677#0 672813677#0.22 672813677#0.51 672813677#1 672813677#1.14 672813677#1.27 672813677#2 903341083#0 -951368605#2 -951368605#1 951368604 -45342801#1 -45342801#0 45342798#2 -45342809#3 -45342834#2 -45342834#1 -45342834#0 44740902#8 44740902#9 44740902#9.47 44740902#10 44740902#10.9 44740902#11 44740885#7 -45342841 -45342802#1 44740902#13 44740902#14 44740902#14.81 44740902#14.94 -44740942#2 -44740942#2.11 -44740942#1 44740901#1 44740901#2 44740957#6 44740957#7 951417474 44740896#2 974189220#2 974189220#3 974189220#4 974189220#5 902433296 44740967#0 44740929#7 -951439009 44740962#2 -44740930#15 44740963 -44740962#0 44740960#1 44740929#9 44740929#9.20 -951421954 -951421954.20 -44740930#12 44740929#0 44740967#4 -44740927#17 -44740927#16 -44740924#1 -44740955#2 951358804 44740926#3 44740926#4 -44740925#1 -44740925#0 44740930#9 44740930#10 44740922#8 955410234 102277232#1 44739167#9 -44740930#7 44740928#0 44740928#0.19 44740928#1 -951358805#1 -951358805#0 -951358806#0 -951358801 44740953#6 44740953#7 -44740949#1 -44740949#0 -44739167#14 -44740945#1 44740946#0 44740948#0 -951438765 313316091#11 45378690#0 45378690#0.38 45378690#1 45378686#0 45378687#0 -45378688#1 -45378688#0 -45378689#1 -45378682#1 -45378682#0 -45378682#0.30 -313316091#8 -313316091#8.29 -313316091#6 -313316091#5 -313316091#5.44 -313316091#4 -313316091#4.67 -313316091#2 -313316091#2.44 -313316091#1 -313316091#1.32 -313316091#0 -313316091#0.27 -313316091#0.72 -313316091#0.80 45340579#18 45340579#18.164 44740932#0 909019790#0 909019790#0.39 909019790#1 -909019791#0 45340579#20 45340579#20.80 955813297#0 955813297#1 44740916#1 44740916#1.7 44740916#1.16 44740916#2 44740916#2.8 44740916#2.32 -909019775 -909019775.30 -909019776#2 -909019776#2.33 -909019776#2.36 -909019776#2.39 -909019776#2.41 -909019776#2.74 -909019776#1 -909019776#1.34 -909019776#0 -909019776#0.39 44740910#4 44740910#5 44740910#5.46 44740910#6 909019782 909019781#1 -44740932#3 44740916#8 -668599377#1 -668599377#1.15 668599376#0 668599376#0.34 668599376#1 668599376#2 668599376#2.6 -668599375#0 -909019783 -909019783.98 -45378660#1 -45378660#1.21 -45378660#1.52 -45378660#1.88 -45378660#1.126 -908560900#3 951346855#0 951346855#0.40 951346855#0.55 -951346854 -951346854.30 -951346854.33 -951346854.34 -951346854.36 -951346854.39 -951346854.40 -951346854.42 -951346854.50 -951346854.52 -951346854.54 -951346854.56 -951346854.59 -951346854.61 -951346854.62 -951346854.64 -951346854.65 -951346854.67 -951346854.69 -951346854.101 908560901#22 908560901#22.77 908560901#22.89 -971495601#0 -313316086 -44739144#26 -44739144#24 -44739144#22 -44739144#21 -951346849 909778546#1 -951361609 903953324#1 903953324#1.22 702673217#0 909024262#0 909024261 909024261.37 702673217#2 702673217#3 702673217#4 702673217#5 -896786294#0 -896786294#0.13 877398366#17 877398366#17.93 877398366#18 877398366#19 877398366#20 877398366#21 671752228#0 -671960103#1 -671960103#0 671960104#1 671960104#2 671960104#3 671960104#4 671752228#2 671752228#3 -671960101#14 -671960101#13 -671960101#12 -671960101#10 44740913#4 44740913#5 44739144#13 -909024265#3 -909024265#2 -909024265#2.29 -909024265#1 -909024265#0 -896786289#0 -896786289#0.7 -904371479#3 -904371474#3 -904371474#2 -904371472#1 -904371472#1.50 904371471 904371469 904286386#6 904286386#7 671191683#3 -904286387#3 -904286387#3.46 -904286387#3.53 -904286387#2 -904286387#2.12 -904286387#1 951973452#1 951973452#2 -951973451#3 -951992361 -904371488#6 -904371488#5 -904371488#4 -904371488#2 -904371488#2.8 -904371488#2.11 -904371488#2.18 -904371468 -904371468.19 -904371468.25 -904371468.28 -904371468.32 -904371468.43 904286384#0 904286384#1 904286384#1.16 904286383#1 896786290#2 896786290#3 896786290#4 896786290#4.40 896786290#5 -877398366#15 -877398366#15.29 -877398366#14 -877398366#14.72 -904286382#4 -904286382#4.34 -904286376 -904286377#0 904286378#1 -904286382#2 877396860#12 -904286380#1 -904286380#1.6 -904286380#1.33 -904286380#0 -951992355 -904286385#10 -904286385#9 -904286385#8 -904286373#4 904286372#0 904286375#1 904286373#0 -951975997 -671191680#8 -671191680#6 -896786326#1 -896786327#1 -896786327#1.48 -896786327#1.55 -896786327#1.60 -896786327#1.64 -896786327#1.68 -896786327#1.74 -896786327#1.124 -896786327#1.170 -896786327#1.205 -896786327#1.211 -896786327#0 877395784#22 877395784#22.56 904371492#0 904371492#0.68 904371492#2 904371492#3 951973476#0 951973476#1 951973471#3 951973471#4 -951973470#0 904371490#4 904371489#0 671191682#0 -671191681#3 -671191681#3.14 904371493#4 -904286385#1 671191681#0 671191681#1 -951973437#1 -951973438#1 -951973438#1.17 -951973438#1.20 -951973438#1.25 -951973438#1.31 -951973439 -951973436#0 -951973436#0.3 -951973436#0.8 -877395784#25 -877395784#25.55 -952002224#7 -952002224#7.17 -952002224#7.71 -952002224#6 -952002224#5 -952002224#5.5 -952002224#4 -952002224#4.27 -952002224#3 -952002224#3.30 -952002224#3.48 -952002224#3.80 904286410#0 904286410#0.33 904286409#0 904286409#1 -951874861 -904286402#1 -904286402#0 -904286410#2 -904286411#3 951874850#0 -951874849#1 -951874849#0 -951874848#0 -952002224#1 896786337#4 896786337#5 896786337#5.11 896786337#6 896786337#7 896786337#8 896786337#8.8 -951887683 -951887684 -951887682#6 951887695#5 -951887700#19 -951887700#18 -951887690 951887688#2 -951887686#0 -951887682#4 -951887682#3 -951887682#2 -951887682#2.37 -951887682#1 -951887682#1.2 -951887682#1.5 -951887682#0 -951887700#14 -951961240#3 -951961240#1 -951961245 951891772#0 -951891773 -951891771#0"/>
</vehicle>
<vehicle id = "veh4" type= "veh_passenger" depart="3605" >
<route edges =" 45342801#5 45342801#5.32 902433317#3 951421968#0 951421968#1 951421968#1.20 951421968#2 951421968#2.9 -45344271#34 -951368598#1 -951381446#0 951368595#1 951368595#1.17 951368595#1.34 902433317#8 902433317#8.29 951368593#1 972507120#2 45342812#0 45342812#1 45342811#2 45342811#2.66 -45344273#22 -45344273#22.6 -45344273#22.18 -45344273#22.35 -45344273#21 -45344273#21.28 45344320#0 45344320#0.59 45344320#0.67 45344320#0.75 45344320#0.90 45344320#1 45344320#2 45344320#3 -45344331#4 45344327#1 897172091#12 -950400189 -45344335#5 -45344335#4 -45344335#3 950400190 -897172091#9 699875131#0 699875131#1 -45344335#1 -45344335#0 -45344335#0.49 45344297#2 45344297#2.7 45344297#2.17 45344297#2.22 45344297#2.28 45344297#2.54 45344297#2.118 950399187#0 -950399186 -950399186.23 -950399186.27 -950399186.30 -950399186.33 700254525#3 700254525#5 700254525#6 700254525#8 700254525#9 950235690#0 950235690#0.11 950235691#0 950235691#0.22 950400191 950400191.10 950400191.18 950400191.24 950400191.29 700254525#12 700254525#12.12 -45344336#6 -45344336#6.35 -950235695#3 -950235695#2 950235702 950732875#1 950235694#2 950235692#1 -950455053 950238177#0 950238177#0.24 950238177#0.27 950238177#0.31 950238177#0.61 950238177#0.78 950238177#0.94 950238177#1 950238177#1.12 -950235699#5 -950235699#4 950235692#4 -45344273#35 -45344273#35.27 45344278#0 45344278#0.58 45344278#0.62 45344278#0.65 -903341095#2 950780326#2 -45344278#2 -45344278#2.20 -950238178#4 -950238178#4.19 950238179#0 -950755158 -950755158.48 -950755158.54 -950755158.58 -950755158.63 950238182#0 950238182#1 950238182#1.37 950238182#1.47 950238182#1.55 950238182#2 950238182#2.9 950238181#3 950238181#3.17 950238181#3.25 950238181#3.34 950238181#3.40 950238181#3.49 -950238180#0 45344278#5 45344271#17 45344271#19 45344271#19.27 897252886#0 897252886#0.21 897252886#0.44 897252886#1 897252886#1.30 897252886#1.51 897252886#2 897252886#2.18 897252886#2.33 -950755157 897252882#3 897252882#3.15 897252882#5 -950235708#2 -950235710#1 -950235710#1.25 -950235710#1.33 -950235710#1.40 -950235710#1.48 -950235710#1.67 -950235710#1.81 951381442 951381442.21 951381442.27 -876567894#58 -876567894#58.4 -876567894#58.9 -876567894#58.17 -876567894#58.22 -876567894#57 -876567894#57.2 -876567894#57.5 -876567894#57.13 -876567894#57.25 -876567894#56 -876567894#56.13 -876567894#56.24 -876567894#55 -876567894#55.10 -876567894#55.28 -876567894#55.80 -876567894#55.100 -876567894#55.109 -876567894#54 -876567894#54.6 -876567894#54.20 -951381438 -951381438.18 -951381438.24 -951381438.29 -951381438.35 -951381438.41 -951381438.47 -951381438.53 -45344271#28 -45344271#28.43 -45344271#27 -45344271#26 -45344271#26.16 -950755151 -950755151.14 -950755151.24 -950755151.34 -950755152#0 -950755152#0.23 -950755152#0.35 45344271#24 -950757963#1 -950757964#2 -950757964#1 -950757961 950757962#1 950235711#2 950235711#3 951132942#3 951132942#4 -950757967 -950757969#3 950757966#0 950757966#1 951132942#7 951132942#7.34 -950235713#4 -950235713#4.13 -950235713#4.16 -950235713#4.19 -950235713#4.23 -950757960#0 -902433292#8 -902433292#7 950759350#2 950757958#2 -950759349#0 -950759349#0.28 -902433292#5 876614905#0 876614905#0.63 876614905#1 950235717#0 950235717#0.7 950235717#0.15 950235717#1 950235719#0 950235719#0.14 950235719#1 950235719#1.11 950235719#1.24 950235719#3 950780327 -950235714#4 -950235714#3 -950235713#1 950759344 950759344.25 950759344.36 950759344.47 -950759347#1 -950759347#1.4 -950759347#1.8 -950759347#1.13 -950759347#1.29 -950759347#1.34 -950759347#1.39 -950759347#1.44 -950759347#1.51 -950759347#1.81 -950759347#1.85 -950759346#2 -950759346#2.9 -950759346#2.14 -950759346#2.19 -950759346#2.25 -950759346#2.37 -950759346#2.40 -950759346#2.44 -950759346#2.53 -950759346#2.57 -950759346#2.61 -950759346#2.66 -950759346#1 -950759346#0 -950806855#3 -45344277#1 -45344277#0 -45344276#2 903373125#0 903373125#1 903373125#1.14 903373125#1.24 903373125#1.33 903373125#1.41 903373125#1.50 903373125#2 -902433292#1 -902433292#1.15 -902822419#8 -902822419#7 -902822419#6 -902822419#6.19 -902822419#6.57 950872171#1 950872171#1.7 950872171#1.16 -950806849#0 -950806849#0.8 -950806849#0.17 -950235727#7 -950235727#6 -950806854 950806855#1 950806855#1.3 950806855#1.8 950235725#2 -950806857 45344277#3 45344277#4 950806852#0 950806852#0.16 950806852#0.21 950806852#0.26 950806852#0.31 950806852#0.35 950806852#1 -950235725#4 950806856 950806856.10 950806856.22 950806856.28 950806856.35 -950235727#3 -950235727#2 -950235727#2.16 -950235727#1 -950235727#1.45 897252880#3 -950235725#7 -950806858 45344277#7 45344277#8 -950806850#1 -950806850#0 45344271#12 45344271#13 45344271#13.28 -950238184#4 950238180#2 -950780324#1 -950780324#1.27 -950780324#1.31 -950780324#1.35 -950780324#1.39 -950780324#1.41 -950780324#1.44 -950780324#0 -950780324#0.30 -950238181#0 -950238180#4 -950238180#4.38 -950238184#0 -897252880#7 -897252880#7.31 -45344271#10 -950641816#10 950235732#0 950235732#1 950235732#2 950235732#3 950235732#4 950235732#5 950235732#5.16 951077734#0 -950241846#1 -950241846#1.22 -950241846#0 45344284#11 45344284#12 45344284#12.58 950872160#0 951077740#0 951077740#1 951077740#2 -951077739#0 45344285#8 45344285#9 45344285#9.26 45344285#10 45344285#10.3 45344285#10.10 45344285#10.14 45344285#10.20 45344285#10.25 950872160#2 950872160#2.4 950872160#3 950872160#4 950872160#4.25 950872160#5 950872160#6 -950241840#0 950929127#9 -950241837#1 -950241837#1.71 -950241837#1.96 -950241837#1.99 -950241837#1.102 -950241837#1.105 -950241837#1.108 -950241837#0 -950241834#1 950241821#2 950241832#2 950241832#2.33 -951014857 -951014858#1 -951014858#1.38 -951014858#0 -951014858#0.81 -950929127#4 -950929127#4.20 950241828#0 950241821#5 -950241831#1 -950241818#6 -950241818#6.21 951014856 951014856.41 951014856.45 951014856.48 951014856.71 951014856.76 951014856.80 951014856.85 -950241818#4 -950241818#3 -950241818#2 -950241818#1 -950241818#1.42 -950241821#13 -950241821#12 -950241821#11 -950241821#11.8 -950241821#11.12 -950241821#10 -950241821#10.5 950241819#3 950241819#4 950241819#5 -951014855#1 -951014855#1.18 -951014855#1.42 -971905923 -950243393#3 -950243393#3.21 45344271#1 45344271#1.39 45344271#2 45344271#2.26 45344271#3 45344271#3.47 45344271#4 45344271#5 45344271#6 45344271#6.35 45344271#7 45344271#7.34 -950641813#1 -950641813#1.14 -950641813#1.27 -950641813#1.43 -950641813#1.59 -950641813#0 -950641813#0.15 -950641813#0.21 -950641813#0.27 950241847#6 950553571 950553571.38 950553571.41 950553571.44 950553571.54 950553571.56 950553571.58 950553571.66 950553571.68 950553571.71 -950241847#4 -950238186#0 -950238188#0 45344284#8 -950241847#2 -950241847#1 -950241859#1 -951043905#1 -951043905#1.58 -951043905#1.61 -951043905#1.65 -951043905#1.69 -951043905#0 -950241861#1 950241857#0 950241863 950241863.49 950241863.52 950241863.55 950241857#2 -950241848#0 950241865#0 950241865#1 950241865#2 950241869#3 950241869#3.5 950241869#3.10 950241869#3.17 -950394093#2 -950394093#2.45 950394092 950241866#7 950241866#7.10 -950241233#3 -950241233#2 -950241233#1 -950241233#0 -45344280#9 -45344280#9.5 -950390893#4 -950390893#4.28 -950390893#4.45 -950390893#4.63 950241224#2 950241224#3 700278832#5 700278832#5.53 45344280#12 45344280#13 950238193#0 950553572 45344284#1 -950553573 950238193#2 45344336#1 950553578#1 -950238192#5 -950238192#5.24 -950238192#4 45344281#1 45344281#2 -45344282#4 -45344282#3 -45344282#2 -45344282#2.18 -45344282#2.53 -45344282#1 -45344282#0 -45344272#0 -45344273#40 -950235700#3 950235699#0 950235695#0 950235697#3 -950235700#1 -950235700#0 -45344336#4 -45344336#3 45344283#4 45344283#5 -950553582#2 -950553582#2.27 950553580#0 950553579 950553579.70 950553579.75 950553579.82 -700278833#5 -700278833#5.31 -700278833#5.45 -950233989#1 -950233989#1.12 -950233989#1.22 -950233989#0 45344283#7 45344283#7.36 45344283#8 45344283#9 45344283#10 45344283#10.15 45344283#10.46 45344283#10.69 45344283#10.88 45344283#10.150 45344283#10.196 45344283#10.260 45344283#10.377 45344283#10.468 45344283#10.514 670655885 670655885.12 896892975 971495602#12 971495602#12.26 971495602#12.77 951442813 951442812#0 -896786335#50 -896786335#49 -896786247#9 -896786247#9.8 -896786247#9.17 -896786247#9.75 -896786247#9.157 -896786247#8 -896786247#7 -896786247#7.2 -896786247#6 -896786247#6.66 -896786247#6.103 908869245 908869245.23 908869249#1 -908869246 -908869247 -908869248#2 -908869248#1 -908869248#1.4 -908869248#1.6 -908869248#1.9 -908869248#1.11 -908869248#1.19 -951358827#2 -951358826 -951358826.10 -951358826.13 -951358826.16 -951358826.19 -951358826.36 -951358826.40 -951358826.44 -951358826.49 -896786335#42 -896786335#42.22 -896786335#41 -896786335#40 -896786335#39 -896786335#39.27 -896786335#37 -896786335#36 -951349917#1 -951349917#1.14 -951349917#1.29 -951349917#1.41 -951349917#1.59 -951349918 -951354772#1 -951354772#1.39 -951354772#1.50 -951354772#1.59 -951354772#0 -951354772#0.6 -951355289#1 -951355289#0 896893016#0 896893017#0 896893017#1 -896786335#28 -896786335#27 -896786335#27.19 951358823 951358823.10 951358823.15 951358823.20 951358823.26 951354763#3 951354763#4 951995493#1 -896786265#2 -951995492#1 -951995492#0 -951995491#0 -896786266#12 909024250#0 909024249 909024249.20 909024249.72 -896893011#1 -896893012#6 -896893012#6.12 -896893012#5 -896893012#5.11 -896893012#4 -896893012#3 -896893012#2 -896893012#2.9 896786300#3 896786300#3.17 45378665#0 45378665#0.11 45378665#0.47 909024239#0 909024239#1 909024239#1.17 -909024237#1 -909024237#1.34 -909024237#1.71 -909024237#1.74 -909024237#1.78 -909024237#1.82 877398366#1 877398366#1.15 877398366#2 877398366#2.36 877398366#3 877398366#4 -896786291#1 -896786291#1.49 -896786291#0 -896786291#0.44 896786293#0 909024289#0 909024289#0.3 909024289#0.8 909024289#0.10 -877396033#7 -877396033#7.19 -877396033#7.29 -877396033#7.75 -896786287#2 896786292#4 896786292#4.57 -896786286#2 -896786286#2.18 -896786286#1 -896786286#1.14 -896786286#0 -896786286#0.12 877398366#9 -896786285 -896786285.50 896786283#0 896786283#0.10 896786269#0 896786269#1 896786269#1.22 -876614861#0 -876614861#0.36 877396033#1 877396033#1.18 896786284#0 896786284#0.89 896786284#1 -877396860#9 -877396860#9.4 -877396860#8 -877396860#7 904371461 904371461.86 904371461.132 904371461.161 904371461.165 904371461.167 904371461.172 -904371458#0 -904371458#0.40 904371460#4 904371460#4.17 904371460#4.32 904371460#5 -896786328#3 -896786328#3.70 -896786328#2 -896786328#2.49 -896786328#1 -896786328#0 -896786328#0.177 -877395784#20 951951639#0 951951639#1 951951639#3 951951639#4 951951639#6 -951946800#0 -951951638#5 -951951638#4 -951951638#3 952000398 951946796#0 951946796#1 951946795#10 951946795#11 951946795#11.34 951946795#11.40 951946795#11.45 896786337#10 896786337#10.21 -951887700#20 671756019#0 671756019#1 671756018 -876509484#8 -876509484#8.19 951878263#0 951878263#0.8 951878263#0.15 -951878265#1 -951878265#0 951878264#2 -951878263#3 -951878266#4 -951878266#4.37 -951878266#2 -951878266#1 -951878266#1.39 -951878266#1.47"/>
</vehicle>
<vehicle id = "veh5" type= "veh_passenger" depart="3605" >
<route edges =" 951370989 951370989.40 951370989.47 951370989.53 951370989.56 951370989.62 951370989.64 951370989.67 -902433320#1 -902433320#0 902433321#2 45342799#21 45342809#0 951368600#0 -951368603#1 951368601#0 951368601#1 -45342797#2 -951370983 -951368602#0 -45342835#0 -45342797#0 45342834#2 45342809#3 45342809#4 45342809#5 -45342836#2 -45342836#0 -45342818#1 -45342817#2 -45342803#7 951370984#0 951370984#1 45342813#2 45342814#2 45342814#3 -45342803#5 -45342803#4 -45342803#3 45342820#0 -45342804#3 45342832#0 45342832#1 -45342822#0 -45342831#2 -45342831#0 -45342804#1 -45342804#0 45342808#2 45342805#0 45342805#0.20 951417482#0 951417482#1 -951417480#1 -951417480#0 -45342805#3 -45342805#2 951417479 -45342809#15 45342824#0 45342833#3 45342833#4 45342823#1 45342823#2 45342828#1 45342828#1.100 -951384596#1 -951384596#1.24 -951384596#1.31 -951384596#1.36 -951384596#1.46 -951384596#1.54 -951384596#1.60 -951384596#1.72 -951384596#1.107 -951417467 -951417467.14 -951417467.15 -951417467.17 -951417467.18 -951417467.21 -951417467.23 -951417467.24 -951417467.25 -951404491 -951404491.16 -951404491.28 -951404491.40 -951404491.51 -951384599#0 700249213#9 700249213#10 700249213#11 -45342808#9 -700249212#3 -951417468 -951417468.27 -951417468.30 -951417468.32 -951417468.34 -45342808#7 -45342808#7.16 -45344273#0 -897252881 -45378637#10 -45378637#9 -951404484#10 951404483#2 45378639#8 45378639#8.59 -951404482 -951404484#5 -951404484#4 -951404484#4.8 -951404484#4.11 -951404484#4.13 -951404484#4.15 -951404484#3 -951404484#3.5 -951404484#3.9 -951404484#3.14 -951404484#3.25 -951404484#3.32 -951404484#2 -951404484#2.19 -951404484#2.23 -951404484#2.26 -951404484#2.29 -951404476 -951404476.16 -951404476.32 -951404476.50 -951404476.59 -951404476.68 -951404476.84 -951404476.93 -951404476.101 -951404476.106 -951404476.113 971495602#7 971495602#7.32 971495602#7.56 971495602#8 971495602#8.24 971495602#8.86 -313316104#6 -45378650#5 -45378650#5.11 45378646#0 45378646#0.20 45378646#1 45378646#2 45378646#2.42 45378646#3 -908846598#1 -908846598#1.20 -908846598#1.40 -908846598#1.44 -908846598#1.67 -908846598#1.96 -908846598#1.126 -908846598#0 -908846598#0.31 908560901#2 908560901#2.40 908560901#3 -45378645#2 -45378645#2.23 -45378645#1 -45378645#1.71 -45378645#1.124 -45378645#0 -45378645#0.60 -45378650#3 -45378650#3.29 -908846595#2 -908846595#2.24 -908846596#2 -908846596#1 -908846596#0 -908846596#0.31 908560901#7 908560901#8 908560901#8.23 908560901#8.56 -313316104#0 -313316082 -45378649#12 896786296#0 -951355298#2 -951355298#2.7 -951355298#2.9 -951355298#2.11 -951355298#2.15 -951355298#2.38 -951355298#2.43 951355292 -45378649#9 -45378649#9.7 951355297#0 -951355296 951354759#1 951354759#1.10 951354759#3 951354759#4 951354759#4.40 896786262#5 896786262#6 896786262#6.9 896786296#2 896786296#2.35 -896786254#1 -896786254#1.26 951355294#1 951355294#1.19 951355294#1.22 951355294#1.23 951355294#1.24 951355294#1.25 951355294#1.27 951355294#1.28 951355294#1.31 951355294#1.41 951355294#1.42 951355294#1.43 951355294#1.44 951355294#1.45 951355294#1.47 896786257#0 896786257#0.74 896786257#0.128 896786257#0.138 896786260#4 896786260#4.25 -909024254 -909024254.11 -909024254.37 -951358819 -951358819.10 -951358819.14 -951358819.18 -951358819.25 -951358819.35 -45378665#8 909024255 909024255.12 909024255.40 909024255.70 896786266#4 896786266#5 -896786260#0 -896786260#0.52 896786257#4 909024248 909024248.50 -45378665#3 -45378665#3.29 -45378665#3.50 -45378665#2 -45378665#2.36 -45378665#1 -45378665#0 -45378665#0.39 -45378665#0.75 -896786335#14 -896786335#14.27 -896786335#13 877398366#0 877398366#0.11 -909024237#0 -951983583#0 -951983583#0.24 -951983583#0.28 -951983583#0.32 -951983583#0.38 -877396860#0 -877396860#0.8 -877396860#0.28 -896786311#13 -896786311#13.20 -896786311#12 -896786311#12.40 -896786311#11 -896786311#11.60 -896786304#9 -896786304#9.25 -877398739#3 -951983590 -896786311#9 -896786311#8 -896786311#7 -896786311#6 -896786311#6.24 951983602 951930672#1 -951930673#3 -951930673#3.17 -951930673#2 -951930673#2.6 -951930673#1 -951930675 877396172#5 896786320#1 951976009#0 951976009#1 -896786335#7 -896786335#6 896786319#0 896786319#0.19 896786319#1 896786319#1.7 896786319#2 -896786315#4 -896786315#2 -896786315#0 -877396172#1 -877396172#1.57 -877396172#0 -877396172#0.15 896786313#3 896786313#3.51 896786313#3.88 896786313#3.110 896786313#3.151 896786313#3.164 896786313#3.186 896786313#3.223 896786313#3.237 896786313#3.246 896786313#3.253 -896786312#1 -896786312#1.17 -896786312#1.24 -951930664#0 -951930661#2 951930662#0 951930662#1 951930662#1.184 -951930663#0 877395784#12 877395784#13 877395784#13.21 951946817#0 951946817#1 951946817#2 -951951641 951946833#3 951946833#4 951975993 951951631#1 951951636 -951946817#4 -951946818#3 -951946818#3.18 -951946818#3.21 951946821#0 951946821#0.45 951946821#0.47 951946821#0.51 951946821#1 951946821#2 -951946820#0 -951946819#0 -951946816#5 -951946816#5.8 -951946816#5.11 -951946816#5.14 -951946816#5.18 -951946816#4 -951946816#2 951946827 951946827.47 951946827.51 951946827.55 951946827.59 951946815#3 951946828 -951946787#4 -951946787#3 -951946787#2 951946830 -951946829#0 -896786337#18 -896786337#17 -896786337#17.3 -951946832 -951946814#0 -951946812#1 -951946813 951946810#1 951946810#2 -896786337#14 -896786337#14.40 -896786337#14.111 -952365020 -952365021 -951878231#2 951868619#0 951868620#0 -951868611#1 -951878231#0 951951645 -951951643#3 -951951643#2 876509484#2 -951951642#1 -951951642#0 951878263#6 -951951649 -951951648#0 -951951643#0 951878263#8 951878230#4 -951891772#4 -951891772#3 -951891772#2 -951891774 951891771#2 -951878270#0 -951878270#0.10 -951878270#0.13 -951878270#0.16 -951878270#0.20 -951878269#10 -951878269#9 951891767 951891769#0 951891769#0.18 951891769#0.24 951891769#0.29 951891769#0.46 951891769#0.50 -951891768 -950288028#1 -950288028#0 -951878269#4 951878272#0 951878272#1 951878272#2 -951891763#2 -951891763#1 951891765#3 -951917022 -951887661#0 -904196454#2 -904196454#1 -904196454#1.67 -904196454#0 700825962#5 700825962#5.39 951891762 -700825961#6 -700825961#6.9 -700825961#5 -700825961#5.7 -700825961#5.17 951887700#1 -951887701#0 951887666#1 951887666#2 951887664#1 904196454#5 904196454#6 -951887665 -951961236#0 -951887700#4 904196454#8 904196454#8.42 904196452#6 -951887668#1 951887671#0 -951887673#1 951887669#2 951887672#3 951887672#4 904196452#8 904196452#8.23 -904196453#12 -904196453#12.24 -904196453#12.79 -904196453#11 951887674#0 951887674#1 951887674#1.3 951887674#1.7 951887674#2 951887674#3 951887674#3.83 951887674#3.90 951887674#3.96 951887674#3.101 951887674#3.111 951887674#3.114 951887674#3.118 -951887700#7 -951887700#7.3 -951887700#7.7 951887663#0 951887663#1 951887663#2 -951887661#2 951887662 -951887660#2 -951887660#0 877401978#1 951878266#0"/>
</vehicle>
<vehicle id = "veh6" type= "veh_passenger" depart="7210" >
<route edges =" -45342801#4 -45342801#3 -45342801#2 -45342801#1 -45342801#0 -45342798#1 45342840#0 45342840#1 45342840#1.79 45342840#1.84 45342840#1.87 45342840#1.91 45342840#1.95 671416444#0 671416442#0 -671416441 671416443#1 671416443#2 -45342838#0 -45342810#0 -45342809#4 45342798#3 45342798#4 45342798#5 45342813#0 45342817#0 45342816#0 -951370984#0 -45342803#6 -45342803#5 -45342803#4 45342821#0 -45342822#2 -45342822#1 -45342832#1 -45342832#0 45342804#3 -45342820#0 -45342803#2 -45342802#2 -45342802#1 -671399056 -671399058#1 671399054#0 671399054#1 671399046#3 671399046#3.56 -44740885#5 -44740885#5.33 -44740885#4 -44740885#3 -44740901#6 -44740901#5 44740896#0 -951417473 -44740957#6 -44740901#2 -671399049#1 -671399049#0 -671399051#0 -44740942#1 -44740901#0 -313316089 -951438761 -44740929#5 -44740929#4 -951438759 -44740922#1 -672215965#1 672215964 -951438760#0 -313316091#19 -313316091#18 -313316091#18.26 -313316091#17 -313316091#16 951438764 951438764.91 951438764.163 -44740923#3 -44740923#2 44740926#1 44740924#0 44740924#1 -44740927#15 -44740927#14 -44739167#11 44740926#6 44740926#7 44740926#8 -44739163#16 -44740981#1 44740983#0 -44740985#1 44740987 -951366798 -951366798.30 -951366798.39 -951366798.48 -951366798.59 -951366798.70 -951366798.78 -951366798.83 -951366798.89 951358797#3 -951358800#0 -44740918#1 44740931#0 44740919#1 -44740949#2 -44740949#1 -44740951#1 -44740951#0 -44740953#4 -44740953#3 44740940#0 44740940#1 44740940#2 -313316091#12 45378690#0 45378690#0.38 45378690#1 -45378689#2 45378688#0 45378688#1 -45378687#0 45378686#1 -45378658#0 45378639#2 45378639#2.25 45378639#2.39 45378639#3 951439124 951439124.12 951439124.17 951439124.21 951439124.25 951439125#1 -45378641#0 45378658#2 -45378640#1 -45378640#0 45378655#1 45378655#2 -45378684#1 -671178935 -45378685#1 45378654#0 45378654#1 45378657#4 -313316091#2 -313316091#2.44 -313316091#1 -313316091#1.32 -313316091#0 -313316091#0.27 -313316091#0.72 -313316091#0.80 -971495601#9 -971495601#9.28 44740934#0 44740934#1 44740934#1.32 44740934#2 44740934#3 44740934#3.12 44740934#4 -44740932#0 45340579#19 45340579#19.12 45340579#19.84 909019791#0 909019791#1 909019791#2 44740933#0 44740933#1 909019787 -44740932#4 -44740932#3 44740916#8 44740916#9 44740916#9.64 44740916#11 44740916#12 44740916#13 909019768#0 909019768#0.14 909019768#0.25 -909019765 -909019766#0 909019767#1 909019767#1.24 909019767#1.35 -971495601#5 -971495601#3 -971495601#1 -971495601#0 -313316086 -44739144#26 -44739144#24 903953326#0 903953326#1 -903953325#3 -903953325#2 -903953325#2.18 -903953325#1 903953324#0 951361609 -909778547#0 -44739144#19 -44739144#19.14 -44739144#18 671752228#0 -671960103#1 -671960103#0 -671960104#0 -44739144#13 -44739144#12 -44739144#11 -909778559#1 672815156#0 44740912#7 44739144#9 -904371478#2 -904371478#2.24 904371477 904371477.56 -877396860#20 -877396860#20.1 -877396860#18 -877396860#18.14 909024294#0 909024294#0.52 909024294#1 -877398366#17 -877398366#17.7 904286386#0 909024293#2 -909024292 -909024292.58 896786290#4 896786290#4.40 896786290#5 -877398366#15 -877398366#15.29 -877398366#14 -877398366#14.72 -904286382#4 -904286382#4.34 -904286376 -904286377#0 -904286378#0 -904286380#2 877396860#13 -896786290#2 904286383#2 -904286380#0 -904286381#4 -904286372#1 -904286372#0 -904286373#3 -904286373#3.24 -904286373#3.27 -904286373#2 -904286373#2.6 -904286373#1 -904286373#0 904286375#2 904286375#2.11 904286375#3 904371466 904371466.63 904371465#2 904371464 896786325#1 -896786328#1 -896786328#0 -896786328#0.177 877395784#21 877395784#21.6 877395784#22 877395784#22.56 904371492#0 904371492#0.68 904371492#2 -904371491 904286385#3 -951973457 904371492#5 -904371456#3 951973471#4 951973470#1 951973470#1.14 951973470#1.18 951973470#1.21 904371490#0 -951973468#2 -951973468#2.26 -951973468#2.29 -951973468#2.31 -951973468#2.34 -951973469 904371490#2 904371490#4 904371489#0 671191682#0 671191682#1 -951973462#2 -951973460#1 951973461 951973461.24 951973461.30 951973461.35 904371493#2 904371493#3 904371493#4 -904286385#1 -904286385#0 -952002224#7 -952002224#7.17 -952002224#7.71 -952002224#6 -952002224#5 -952002224#5.5 951973430#0 951973430#1 951951639#8 951951639#9 -951946798#1 -951951638#3 -951951638#2 -951951638#1 -952000397 951951639#15 896786337#6 896786337#7 896786337#8 896786337#8.8 -951887683 -951887684 -951887682#6 951887695#5 -951887700#19 -951887700#18 -951887690 951887688#2 -951887686#0 -951887682#4 -951887682#3 951887692 -951887691#0 -951887682#0 -951961243 -951961242#0 -951961240#1 -951961245 951891772#0 -951891773 -951891771#0"/>
</vehicle>
<vehicle id = "veh7" type= "veh_passenger" depart="7210" >
<route edges =" 45342801#5 45342801#5.32 902433317#3 902433317#4 902433317#6 902433317#7 902433317#8 902433317#8.29 951368593#1 972507120#2 45342812#0 45342812#1 45342811#2 45342811#2.66 45344273#23 45344273#23.11 -951379890#1 -951379890#1.37 -951379890#1.47 -951379889 -951379889.17 -951379889.23 -951379889.29 -951379889.36 -951379889.42 -897252873#1 -897252873#1.42 -897252873#0 -897252873#0.25 897252876#4 897252876#5 897252876#5.34 897252876#6 897252876#7 897252876#8 897252876#9 45344324#0 45344329#3 45344329#4 45344329#5 45344329#6 45344327#0 -45344331#3 -45344331#2 -45344331#1 952274660 952274660.29 952274660.31 952274660.34 -951404486#0 -45344333#1 -45344330#1 45344326#0 45344326#0.4 45344326#0.22 45344326#2 45344326#2.16 45344326#3 -897172091#6 -897172091#5 -897172091#4 -897172091#3 -897172091#1 -699875130#3 -699875130#3.50 -699875130#1 -699875130#0 -699875130#0.26 -699875131#0 897172091#9 -950400190 -45344335#2 699875131#2 699875131#3 -950400192#1 950235689#1 -950400194#1 -950400193#1 -950400193#0 -950400195#0 -700254525#5 951141449 951141449.18 951141449.22 951141449.26 700254525#8 700254525#9 700254525#11 700254524#0 700254523 -700254525#0 45344272#4 950233988#0 -45344283#8 950318420 950318420.15 950318420.26 950318420.37 950318420.53 950318420.71 950318420.85 950318420.94 950318421#1 950233988#2 950233988#2.43 950233988#2.55 -700278833#3 -700278833#2 -700278833#2.24 950241222#0 950392123#0 950392123#0.21 950392123#0.29 950392123#0.39 -950390889#3 -950390889#3.20 -950390889#3.34 -950390889#3.45 950392121#0 950392121#0.13 950392121#0.18 950392121#0.24 950392121#0.35 950392121#0.44 950392121#0.54 950392118 950392118.21 950392118.25 950392118.27 950392118.39 950392118.42 950392118.45 950392118.47 -950392120#0 -950392120#0.3 -950392120#0.25 -950392120#0.41 -950392120#0.51 -950392120#0.60 -950392120#0.69 -950390889#0 -950390889#0.4 -950390889#0.19 950390893#3 950241224#2 950241224#3 700278832#5 700278832#5.53 45344280#12 45344284#0 45344284#1 45344284#2 45344284#3 -950238192#4 -950238192#3 -950241233#1 950241229#0 950394094 950394094.44 950394094.47 950394094.49 950394094.55 950394094.58 950394094.62 -950392117#1 950392116#0 950392116#0.39 950392116#1 -45344280#7 -45344280#6 -45344280#6.17 950241866#0 950241866#1 950241866#1.32 950241866#3 950241866#3.97 950241866#3.100 950241866#3.104 950241868#0 950394090#0 950394090#1 950394090#2 950394090#2.13 950394090#2.18 950394092 950241866#7 950241866#7.10 950241866#8 950241866#9 45344284#6 45344284#7 45344284#7.45 45344284#7.106 45344284#8 45344284#9 -45344271#5 -902433322#2 -950241847#1 -950241847#0 -950241848#4 -950241848#3 -950241861#2 -950241861#1 950241857#0 950241857#1 950241857#1.22 950241857#1.26 950241857#1.30 950241857#2 -950241848#0 45344282#6 45344282#6.25 45344282#6.103 950243393#0 950243393#1 950243393#1.48 950243393#1.98 950241855#4 950241855#5 950241855#5.29 950241855#5.32 950241855#5.36 -950396018#1 -950396018#0 950396019 897252879#9 -950396020#3 -950396020#1 -950396020#1.13 -950396020#0 -897252878#2 -897252878#1 950396022#0 950396022#1 950241209#2 950241209#2.6 950241209#2.13 950241209#2.18 950241209#2.32 950241209#2.44 950241209#2.66 950241209#2.89 950243392#1 -950243391#0 -950243391#0.66 -950243391#0.74 -950243391#0.79 -950243391#0.86 -950243391#0.116 -950241209#4 -950241209#4.34 -950396025 -897252877#0 -897252877#0.24 45344280#3 -950241222#4 -950241223#0 -950241220#3 950390892#0 950390892#0.36 950390892#0.42 950390892#0.47 950390892#0.51 -950389244#0 -950389244#0.11 897252879#14 897252879#14.50 897252879#15 897252879#17 897252879#18 897252879#18.162 897252879#19 897252879#19.29 897252879#20 950318425#0 950318424#0 -951440585 -951440585.7 -951440585.12 -951440585.20 -951440585.29 -951440585.32 -951440585.35 -951440585.38 -951440585.40 -951440585.42 -951440585.45 -951440585.50 -951440585.53 -951440585.57 -951440585.61 897252879#22 897252879#23 896892972 896892973 896892973.27 896892973.31 -896786335#50 -896786335#49 -896786335#48 -896786335#48.15 -896786335#47 -896786335#46 -896786335#44 -896786335#44.9 -896786335#44.71 -896786335#43 -896786335#42 -896786335#42.22 -896786335#41 -896786335#40 -896786335#39 -896786335#39.27 -896786335#37 -896786335#36 -896786335#34 -896786335#33 -951354773#3 -951354773#3.20 -951354773#3.23 -951354773#3.26 -951354773#3.28 -951354773#3.30 -951354773#3.32 -951354773#3.34 -951354773#3.38 -951354773#3.40 -951354773#3.43 -951354773#3.45 -951354771#1 -951354771#0 896893028#5 -896786335#29 -896786335#29.17 -896786335#28 951358824#0 951358824#0.11 951358824#0.16 951358824#0.21 951358824#0.29 951358824#0.41 951358824#0.47 951358824#0.52 -951354763#1 -951354765#0 -896786265#6 -896786265#6.26 896786253 896786253.47 896786253.111 896786263#4 -951358821#2 -951358821#2.84 -951358821#2.87 -951358821#2.89 -951358821#2.91 -951358821#2.98 -951358821#1 -951358821#0 -951358821#0.3 -951358821#0.6 -951358821#0.9 -951358822#0 -951358822#0.4 -951358822#0.8 -951358822#0.13 -896786265#2 -896786265#0 896786266#11 896786266#11.13 896786266#12 896786266#13 896786266#13.14 -896786335#21 -896786335#21.41 -896786335#19 -951995495 -909024243#0 -909024244#0 -896786335#17 -896786335#17.2 909024245 909024245.31 909024245.51 909024245.75 909024250#5 -909024246 -909024246.27 -909024246.63 -909024246.70 -909024246.79 -896786335#15 45378665#0 45378665#0.11 45378665#0.47 909024239#0 909024239#1 909024239#1.17 909024239#2 909024239#2.40 -951983585 -951975994 -896786324#1 -896786324#0 -896786324#0.19 -896786324#0.132 -896786324#0.177 951951639#0 951946803#0 951946795#1 951946795#2 951946795#3 951946795#4 951946795#6 -951946798#2 951951639#10 951946797 951946795#9 951946795#10 951946795#11 951946795#11.34 951946795#11.40 951946795#11.45 896786337#10 896786337#10.21 -951887700#20 671756019#0 -951961251#1 -951961251#0 -876509484#7 -876509484#7.6 -876509484#7.25 -876509484#6 -876509484#6.3 -876509484#6.8 -876509484#6.12 -876509484#6.15 -876509484#5 -951878267#1 -951878267#0 -951878267#0.26 -951878267#0.29 -951878267#0.32 -951878267#0.34 951878265#0 951878265#1 951878263#1 951878263#1.39 951878263#1.46 951878263#1.53 951878263#1.72 951878263#1.75 951878263#2 951878263#2.2 -951878266#4 -951878266#4.37 -951878266#2 -951878266#1 -951878266#1.39 -951878266#1.47"/>
</vehicle>
<vehicle id = "veh8" type= "veh_passenger" depart="7210" >
<route edges =" 951370989 951370989.40 951370989.47 951370989.53 951370989.56 951370989.62 951370989.64 951370989.67 -902433320#1 -902433320#0 902433321#2 45342799#21 45342809#0 951368600#0 -951368603#1 -951368603#0 45342835#2 45342809#2 45342809#3 45342809#4 45342809#5 -45342836#2 -951441769 -951370985#0 45342818#3 45342814#5 45342809#8 45342809#9 45342809#10 45342809#10.44 45342809#11 -45342831#3 -45342831#2 -951417482#2 -951417482#1 -951417481 -45342805#2 -45342805#1 -45342805#1.66 -45342805#0 -45342805#0.29 897252872 897252872.36 -45342809#16 -45342809#15 45342824#0 45342824#1 45342824#2 951366786 45342833#4 45342823#1 45342823#2 45342828#1 45342828#1.100 -45344273#6 -45344273#6.40 -45344273#6.59 -951384598#3 -951384598#2 -951404491 -951404491.16 -951404491.28 -951404491.40 -951404491.51 -951384599#0 -897252868#5 -897252869#2 897252861 897252860#1 -45344315#1 -45344315#1.25 -45344315#0 -45344315#0.31 -951404492 -951417468 -951417468.27 -951417468.30 -951417468.32 -951417468.34 45342808#8 45342808#9 45342808#10 951370965#0 951370965#0.26 951370965#0.30 951370965#0.33 951370965#0.37 951370965#0.40 -951417471 -951417471.23 -951417471.42 45342808#12 -897252871 -897252870 -45344310#2 -45344310#1 -45344310#0 -45344310#0.10 -45344310#0.18 -45344310#0.30 -45344310#0.41 -45344310#0.52 971495602#8 971495602#8.24 971495602#8.86 -313316104#6 -45378650#5 -45378650#5.11 -45378650#4 -45378650#3 -45378650#3.29 -45378650#2 -45378650#2.42 -45378650#2.62 -45378650#1 -908846596#1 -908846596#0 -908846596#0.31 908560901#7 908560901#8 908560901#8.23 908560901#8.56 -313316104#0 -313316082 -45378649#12 896786247#0 896786247#0.38 896786247#1 -908869244#2 -908869244#2.9 -908869244#0 -908869250#1 -908869250#0 -908869250#0.11 -908869250#0.41 -45378649#10 -45378649#10.20 -951355292 -951355298#1 -951355298#1.5 -951355298#1.10 -951355298#0 -951355298#0.4 951354759#3 951354759#4 951354759#4.40 -896786262#4 -896786262#4.31 -896786262#3 -896786262#3.9 -896786262#1 -896786262#0 -896786262#0.33 -896786262#0.115 -896786260#1 -896786260#1.5 -896786266#5 896786257#2 896786257#2.28 896786257#2.57 896786257#3 896786257#3.14 896786257#4 909024248 909024248.50 909024287#0 909024287#0.8 909024287#0.15 909024287#0.65 -909024286 -909024289#2 -909024288#1 -909024288#0 -877396033#5 -877396033#5.40 -877396033#4 -877396033#4.15 -877396033#2 896786284#0 896786284#0.89 -877398366#11 -877398366#11.11 -904371462#2 904371460#0 904371460#0.34 904371460#1 904371460#2 904371460#2.34 904371457 877398366#6 877398520#0 877398520#0.55 896786288#0 896786288#0.26 896786288#0.48 896786288#1 -951995475#2 -951995475#1 -951995475#1.25 -951995475#0 896786293#2 896786293#2.8 896786293#2.28 896786293#2.36 896786293#2.45 896786293#2.48 896786293#2.52 896786293#3 896786293#3.29 896786293#4 896786257#7 896786257#7.17 896786257#7.37 896786257#7.44 896786257#7.49 896786257#7.54 -45378665#1 -45378665#0 -45378665#0.39 -45378665#0.75 -896786300#3 -896786300#3.27 -896893012#1 -896893012#0 -896893012#0.11 -896786303#4 -896786303#4.22 -896786303#3 -896786303#2 -896786303#2.23 -951983587#8 -951983588#1 -951983588#0 -951983586#0 -896786303#0 -896786311#12 -896786311#12.40 -951976011#1 951976010#1 -896786335#9 -896786321#3 -896786321#3.6 -896786321#3.61 -896786320#3 -896786320#3.5 951930673#0 -951930675 -877396172#3 896786315#0 -896786316#3 896786317#0 896786317#1 896786317#1.17 896786319#5 896786319#5.19 896786316#0 896786316#1 896786316#1.13 -951930664#5 -877396172#0 -877396172#0.15 -896786313#2 -896786313#2.55 -951930663#1 951930662#2 951976000#3 -951976001#1 -951976002 -951976000#1 -951976000#0 -896786335#0 -877395784#15 951946833#0 -951946816#11 -951946816#10 -951946816#9 951946824 -877395784#12 -877395784#11 -877395784#11.58 951946825#0 951946825#1 -951946816#4 -951946816#2 -951946816#1 951946810#0 951946810#1 951946810#2 -896786337#14 -896786337#14.40 -896786337#14.111 -952365020 -952365021 -951878231#2 951868619#0 951868620#0 -951868611#1 -951868611#0 951951643#5 951951644#0 -951951642#4 -951951642#3 -951951642#3.15 -951951642#3.18 -951951642#3.20 -951951642#3.23 -951951642#3.36 -951951642#3.39 -951951642#3.41 -951951642#3.43 951951646 -951951643#2 -951951643#1 -951951643#0 -951878263#7 -951878263#6 -951878263#5 -951878269#15 -951891772#2 -951891774 951891771#2 951930613 -951878269#9 -951878269#7 -951878269#6 951891765#0 951891765#1 -951887654#2 -951887654#1 -951887655#2 -951887655#1 -951887655#0 904196454#1 904196454#1.35 -951878272#5 -951878272#4 -951891763#2 -951891763#1 -951891763#0 -951891764#0 -951887663#3 951887661#3 951878266#0"/>
</vehicle>
<vehicle id = "veh9" type= "veh_passenger" depart="10815" >
<route edges =" 951370989 951370989.40 951370989.47 951370989.53 951370989.56 951370989.62 951370989.64 951370989.67 -902433320#1 -902433320#0 902433321#2 -45342799#20 -45342797#4 -45342797#3 -45342797#2 -45342797#1 -45342797#0 45342834#2 45342809#3 45342798#3 45342798#4 45342818#0 -45342817#2 -45342817#1 45342816#0 -951370984#0 -45342803#6 -45342803#5 -45342803#4 -45342803#3 -45342803#2 -45342803#1 -45342803#0 -45342843#2 -45342843#1 -45342843#0 44740957#2 44740957#4 -671399051#1 -671399051#0 -44740942#1 -44740901#0 -313316089 -951438761 44740929#6 44740929#7 44740929#8 44740929#9 44740929#9.20 -951421954 -951421954.20 -44740930#12 -44740930#11 -44740922#7 -44740989#1 44740923#1 44740926#1 44740926#2 44740926#3 -951358803 -44740955#0 44740925#3 -44740927#14 -44740927#13 -44740928#2 -951358805#1 -951358805#0 -951358806#0 -951358801 -44740953#5 -44740953#4 44739167#13 -44740945#1 -44740945#0 44740940#1 -44740948#1 -44740948#0 44740946#1 45378682#0 45378682#0.48 45378682#1 -45378689#0 45378683#1 45378655#2 45378655#3 -45378685#2 -45378685#1 45378654#0 45378654#1 -45378657#3 -45378657#3.57 -45378657#3.61 -45378657#3.65 -45378657#3.69 -45378657#3.73 -45378657#3.78 -45378672 -45378672.64 45378673 -45378657#1 -44740931#2 -44740931#2.59 -44740931#1 -44740931#0 -44740918#0 44740920#6 -951358792 -951358792.26 -951358792.42 -951358792.53 -951358792.66 896892969#18 45340579#18 45340579#18.164 44740932#0 909019790#0 909019790#0.39 -909019789#2 -909019789#1 44740916#7 44740916#8 44740916#9 44740916#9.64 -909019783 -909019783.98 -45378660#1 -45378660#1.21 -45378660#1.52 -45378660#1.88 -45378660#1.126 -908560900#3 -908560900#2 -908560900#1 -908560901#21 -908560901#21.18 -908560901#21.74 -908560901#20 -908560901#20.10 -908560901#20.61 -908560901#20.115 -908560901#19 -908560901#19.77 -908560901#19.104 -896786299#0 -896786298 -45378665#19 896786295#0 896786295#0.19 896786295#1 896786295#1.16 951347813#0 951347813#0.59 -951433464 -951347814#0 -951347814#0.2 -951347814#0.5 909024259#1 909024259#1.34 909024258#0 909024258#1 909024258#1.3 896786296#14 896786296#14.11 896786296#15 896786296#15.3 896786296#16 896786296#17 896786296#17.29 896786296#17.96 896786296#17.102 896786296#18 896786296#18.4 896786296#18.17 -44739144#24 -44739144#22 -44739144#21 -951346849 909778546#1 -951361609 903953324#1 903953324#1.22 702673217#0 702673217#1 702673217#2 896786289#3 -909024270 -909024270.74 -909024270.101 -909024277#0 909024279#4 909024279#4.20 -909024280#1 -909024280#1.18 -909024280#0 896786295#12 896786295#12.9 896786295#13 -896786294#5 -896786294#5.6 -896786294#5.10 -896786294#5.13 -896786294#5.16 -896786294#5.19 -896786294#5.22 -896786294#4 -896786294#3 -896786294#3.26 951992347 -896786277#2 -896786277#0 -896786290#5 -909024293#3 -909024293#2 904286386#1 904286386#1.27 -877396860#15 -877396860#14 -877396860#14.23 -877396860#13 904286380#2 904286378#0 904286378#1 -904286382#2 -904286382#1 -904286382#0 904286381#2 904286381#3 904286381#3.4 904286381#3.18 904286381#4 -951992355 904286375#0 -904286372#0 904286373#4 -904286385#6 -904286385#5 -904286385#5.9 -904371490#4 -904371492#6 -904371456#3 -904371456#2 -904371456#2.22 -904371456#1 -904371456#0 -904371456#0.17 -671191680#0 -671191680#0.38 -671191680#0.44 -671191680#0.48 -671191680#0.53 -671191680#0.58 -671191680#0.63 -671191680#0.76 -896786327#0 877395784#22 877395784#22.56 877395784#23 -952002224#7 -952002224#7.17 -952002224#7.71 -951973426#2 951951638#9 951973434#1 951951639#3 951951639#4 -951973432#1 -951973432#0 -952002224#5 -952002224#5.5 -952002224#4 -952002224#4.27 -952002224#3 -952002224#3.30 -952002224#3.48 -952002224#3.80 904286410#0 904286410#0.33 904286409#0 951874860#2 -904286402#0 -904286410#2 -904286411#3 951874850#0 -951874849#1 -951874849#0 -951874848#0 -952002224#1 896786337#4 951951638#0 -952000397 951951639#15 896786337#6 896786337#7 896786337#8 896786337#8.8 896786337#10 896786337#10.21 -951887700#20 -951887700#19 -671756019#4 -671756019#3 951961253 951961253.63 951961253.68 951961253.73 951961233#1 951961233#3 951961233#3.5 951961233#3.10 951961233#3.14 951961233#3.19 951961244 951961244.37 951961244.40 951961244.43 951961244.47 -951961242#1 -951961242#0 -951961240#1 -951961245 951891772#0 -951891773 -951891771#0"/>
</vehicle>
<vehicle id = "veh10" type= "veh_passenger" depart="10815" >
<route edges =" 45342801#5 45342801#5.32 902433317#3 951421968#0 951421968#1 951421968#1.20 951421968#2 951421968#2.9 -45344271#34 -951368598#1 -951381446#0 951368595#1 951368595#1.17 951368595#1.34 902433317#8 902433317#8.29 951368593#1 972507120#2 -951368594#2 -951369743#1 -951369743#1.33 -951369743#1.39 -951369743#0 -951369743#0.6 951369744#2 951369744#2.22 951369744#2.31 951369744#3 951369744#3.5 -951369745#1 -951369745#1.3 -951369745#1.8 -951381440 951369737#2 951369737#2.6 951369737#2.11 951369737#2.19 951369737#2.29 951369737#2.37 951369737#2.48 -951369740#1 -951369740#1.11 -951369740#1.14 -951369740#1.18 -951369740#1.22 -951369740#1.28 -951369740#1.32 -951369740#1.36 -951369740#1.40 -951369740#1.44 -951369740#1.64 -951369740#0 -951369740#0.4 -951369740#0.11 -45344273#26 897252876#0 897252876#0.16 897252876#0.57 897252876#1 897252876#1.54 -45344336#9 -45344336#9.10 -45344336#9.61 -45344336#9.126 -45344336#9.147 -950455054 45344320#6 45344320#6.8 -45344335#7 -45344335#5 -45344335#4 -950235690#1 -950235690#0 -950235690#0.14 -700254525#9 -700254525#8 950235689#0 -950400192#0 -950400193#0 950400195#1 950400195#1.6 950400195#1.15 950400195#1.29 950400195#1.40 950400195#1.46 950400195#1.55 950400195#1.60 950400195#1.66 950400195#1.74 950400195#1.81 950400194#0 950400194#1 950235689#2 -45344335#0 -45344335#0.49 -45344297#0 -45344297#0.11 699875130#3 699875130#3.37 -897172091#0 -45344294#6 -45344294#6.9 -45344294#6.25 -45344294#5 -45344294#5.7 -45344291#4 -45344291#4.36 -951370958 -45344288#0 -45344288#0.29 -45344294#3 897252857 -897252858#1 -897252858#0 -897252850#4 -951370961#1 -951370961#0 897252852#6 897252852#6.19 897252858#3 -45344286#12 -45344299 -45344299.40 -45344299.79 -45344299.80 -45344299.82 -45344299.84 -45344299.86 -45344299.89 -45344299.97 -45344299.99 -45344299.101 -45344299.106 -896892971#1 -896892971#0 -896892971#0.14 -896892971#0.28 -896892971#0.54 -896892971#0.88 -45344286#8 -45344286#7 -45344286#6 -45344286#6.52 -45344286#4 -45344286#4.11 -45344286#3 -45344286#3.9 -45344286#3.30 -45344286#3.45 -45344286#2 -45344286#2.12 -45344286#2.42 951440588 951440588.19 951440588.23 951440588.28 951440588.33 951440588.54 951440588.59 951440588.67 951440588.90 951440588.105 951440588.109 951440588.113 951440588.119 951440588.124 951440588.129 951440588.138 951440588.140 951440588.143 951440588.148 951440588.162 951440588.168 951440588.174 951440588.183 951440588.193 951440588.221 951440588.225 951440588.229 951440588.234 951440588.238 951440588.244 951440588.248 951440588.251 951440588.254 951440588.258 -951384601#1 951384600 -702632123#2 -702632123#1 -702632123#1.4 -702632123#0 45344272#13 45344272#13.4 45344272#13.35 45344298 896892974 971495602#11 971495602#12 971495602#12.26 971495602#12.77 951442813 951442812#0 -896786335#50 -896892981#13 -896892981#13.5 -896892981#13.13 -951349911#1 -951349910#1 -951349910#1.29 951354767 -896892981#10 -896892981#10.8 -896892981#9 -896892981#8 -896892981#8.18 -896892981#8.50 -896892981#8.78 -951358829#1 -951358829#1.27 -951358829#1.80 950260764#0 950260764#0.14 950260764#0.20 950260764#0.27 950260764#0.78 950260764#0.85 950260764#0.90 950260764#0.94 950260764#0.98 950260764#1 950260764#2 950260764#3 950233986#3 -951349909#6 -951349909#6.10 -951349909#5 -951349909#5.11 -951349908#1 -951349908#0 -950260765#10 951998783#0 -876614662#0 951998787#3 -950260765#7 -950260765#7.3 -950260765#6 -950260765#5 -950260765#5.30 -950260765#5.33 -952216032#1 -952216032#0 -952216032#0.13 952213575#9 952213575#9.39 952213575#9.47 952213575#9.52 952213575#9.55 952213575#9.60 -951998789 -951998789.89 -951998789.91 -951998789.95 -951998789.98 -951998787#0 -951998787#0.10 -951998787#0.14 -951998787#0.18 -951998787#0.21 951998783#2 -951998785#1 -951998790 896893023#7 896893025#6 896893025#7 896893025#7.15 896893025#9 896893025#9.39 896892985#0 896892985#0.36 -951998763 896892986#1 896892986#1.7 896892986#1.21 896892986#2 896892986#2.44 896892986#2.82 -896892984#2 -896892985#2 -896892985#2.25 -896892985#2.78 951349909#0 951998762#1 896893025#11 896893025#11.31 876614662#2 876614662#3 876614662#3.4 951349909#2 951349907#2 951349907#2.59 951349907#2.68 951349907#2.75 951349907#2.88 951349907#2.101 951349907#3 -896892983#5 -896892983#5.16 -951354774#1 -951354774#0 -951350966#3 -951350966#2 -951350966#2.8 -951350966#2.10 -951350966#2.12 -951350966#2.14 -951350966#2.16 -951350966#2.19 -951350966#2.59 -951350966#2.61 -951350966#2.63 -951350966#2.64 -951350966#2.66 -951350966#2.78 -951350966#2.82 -951350966#2.87 -951350966#2.94 -951350965 950233986#5 950233986#5.1 950233986#5.5 950233986#6 950233986#8 950233986#8.24 950233986#10 950233986#10.3 950233986#10.51 896892981#5 951349912#0 951349912#0.14 951349912#0.18 951349912#0.25 951349912#0.33 951349912#0.69 951349912#0.72 951349912#0.74 951349912#0.76 951349912#1 951349912#1.12 951349912#1.14 951349912#1.16 951349912#1.19 -896786335#44 -896786335#44.9 -896786335#44.71 -896786335#43 -896786335#42 -896786335#42.22 -896786335#41 908869237 908869237.8 908869237.20 908869237.48 -908869250#3 -908869238 -908869238.92 -896786335#39 -896786335#39.27 -896786335#37 -896786335#36 -896786335#34 -908869252#3 -908869252#3.7 -908869252#3.13 -908869252#3.35 -908869252#3.57 -908869252#3.88 -908869252#3.90 -908869252#3.94 -908869252#1 -908869252#0 -908869252#0.17 -896786335#30 -896786335#29 -896786335#29.17 -896786335#28 -896786335#27 -896786335#27.19 -896786335#26 -951995494#1 -951995491#2 -951995491#1 -951995491#0 896786266#13 896786266#13.14 -896893013#7 -896893013#7.29 -896893013#7.87 951995483 -896893004#2 -896893004#0 -877388728#11 -877388728#10 -877388728#10.145 -877388728#9 -877388728#7 -877388728#5 -877388728#5.9 -877388728#5.30 -877388728#4 -877388728#4.18 896893019#0 896893019#0.19 951998769#0 951998769#1 896892989#1 896892989#1.36 896892989#2 951998768#0 951998768#1 951998768#1.49 951998768#1.52 951998768#1.55 951998768#1.59 896786297#12 -896893024#2 -896893024#2.33 -896893024#1 -896893023#1 -896893023#0 -896893023#0.13 -877388728#2 -877388728#2.97 951988590#0 951988590#1 -951988592#1 -951988592#1.72 -951988592#1.76 -951988592#1.81 -951988592#1.85 -951988592#1.88 -951988592#1.92 -951988592#1.145 -951988592#1.154 -951988592#1.163 -951988591#1 -951988591#1.3 -951988591#0 896786309#10 896786309#10.113 896786309#11 896786309#13 -951988598#1 951988599 -951988597#0 -951988596#0 951988595#2 951930617#9 -951983592#7 -951983592#6 -951983592#6.23 -951983592#6.30 -951983592#6.36 -951983592#5 -896786310#6 -896786310#6.9 -896786310#4 -896786310#4.9 -896786310#3 896786309#6 896786309#6.19 896786309#6.40 896786309#6.67 -896892996#1 -896892996#1.16 -896892996#1.37 -896892996#1.52 -896892996#1.86 896892997#0 896892997#1 -896892998#2 -896892998#2.10 -896892998#1 -896892998#0 -896892998#0.14 896892994#1 896892994#1.12 896892994#1.37 -896786307#1 -896786307#0 -896786307#0.54 896786308#1 896786308#1.21 -896786305#0 -896786305#0.72 -896786305#0.81 -896786309#0 896786304#2 896786300#0 896786300#0.23 896893013#0 896893013#0.10 896893013#0.59 -896893009 -896893009.79 -896893012#4 -896893012#3 -896893012#2 -896893012#2.9 -896893012#1 -896893012#0 -896893012#0.11 -896786303#4 -896786303#4.22 -896786303#3 -896786303#2 -896786303#2.23 951983587#9 877398366#0 877398366#0.11 -909024237#0 951983583#1 -896786335#11 -896786335#10 -896786335#10.38 -896786322 -896786322.14 -896786322.21 -896786323#1 896786325#4 896786325#4.12 -896786335#4 -896786335#4.18 -896786335#3 -896786335#3.10 -896786335#2 -896786335#1 -896786335#1.14 -896786335#0 877395784#17 877395784#17.13 877395784#17.29 877395784#19 951951639#0 951946803#0 951946795#1 951946795#2 -951946801 951951639#6 951951639#7 951951639#8 951951639#9 951951639#10 951951639#11 951946796#0 951946804 951946804.28 951946804.31 951946804.34 951946804.37 951946795#11 951946795#11.34 951946795#11.40 951946795#11.45 -951887683 -951887684 -951887682#6 951887695#5 671756019#0 671756019#1 671756018 -876509484#8 -876509484#8.19 951961251#0 951961247#0 951961248#0 951961248#1 -876509484#6 -876509484#6.3 -876509484#6.8 -876509484#6.12 -876509484#6.15 951878264#0 951878264#0.74 951878264#2 -951878263#3 -951878266#4 -951878266#4.37 -951878266#2 -951878266#1 -951878266#1.39 -951878266#1.47"/>
</vehicle>
<vehicle id = "veh11" type= "veh_passenger" depart="10815" >
<route edges =" -45342801#4 -45342801#3 903341082#0 903341082#0.10 -672813677#4 -672813677#4.16 -672813677#2 -672813677#1 -672813677#1.10 -672813677#1.22 -672813677#0 -672813677#0.12 -672813677#0.41 45342799#25 45342799#25.7 45342799#25.22 45342799#26 45342799#27 45342799#27.15 45342799#27.20 45342799#27.25 45342799#27.36 -951370987 -951370987.52 -951370987.54 -951370987.56 -951370987.57 -951370987.59 -951370987.62 -903341083#2 -903341083#1 -951368605#2 -951368605#1 -951368605#0 45342811#1 45342811#2 45342811#2.66 -45344273#22 -45344273#22.6 -45344273#22.18 -45344273#22.35 -45344273#21 -45344273#21.28 -45344273#19 -45344273#18 -45344273#18.17 -45344273#17 -45344273#17.20 -45344273#17.31 -45344273#16 -45344273#16.5 -45344273#16.30 -45344273#14 -45344273#14.32 -45344273#13 -45344273#12 -45344273#11 -45344273#10 -45344273#10.42 -45344273#9 -45344273#8 -45344273#8.10 -45344273#7 -45344273#7.22 -45344273#6 -45344273#6.40 -45344273#6.59 -45344273#5 -45344273#5.6 -45344273#5.15 -45344273#4 -45344273#4.8 -45344273#4.37 -45344273#3 -45344273#3.6 -45344273#3.14 -45344273#3.31 -45344273#3.48 -45344273#2 -45344273#2.6 -45344273#2.24 -951404493 -951404493.17 -951404493.21 -951404493.24 -951404493.26 -951404493.29 -951404493.32 -951404493.38 -951404493.57 -951404493.66 -951404493.74 -700249212#0 700249213#10 -951404492 700249212#3 -45342808#8 -45342808#7 -45342808#7.16 -45344273#0 -897252881 -45378637#10 45378639#7 -951404483#2 -951404484#9 -951404484#9.20 -951404484#8 -951404484#6 951404482 45378639#9 45378639#10 45378639#11 45378639#12 45378639#12.8 -45344310#1 -45344310#0 -45344310#0.10 -45344310#0.18 -45344310#0.30 -45344310#0.41 -45344310#0.52 971495602#8 971495602#8.24 971495602#8.86 -313316104#6 -313316104#5 -313316104#5.12 -313316104#5.27 -313316104#5.46 -313316104#4 -313316104#4.4 -313316104#4.18 -313316104#4.31 -313316104#4.41 -313316104#4.56 -313316104#3 -951347804#2 -951347804#2.16 -951347804#2.19 -951347804#2.23 -951347804#2.26 -951347804#2.30 -951347804#2.33 -951347804#2.35 -951347804#0 -951347804#0.1 -951347804#0.6 -951347804#0.20 -951347804#0.28 -951347804#0.33 -951347804#0.39 45378651#1 45378651#2 45378651#2.13 45378651#3 908560887#0 908560887#0.10 951436329#0 951436329#0.45 951436329#0.47 951436329#0.49 951436329#0.50 951436329#0.52 951436329#1 -908560882#2 -908560882#2.31 -908560882#2.36 -908560882#2.42 -908560882#2.46 -908560882#2.49 -908560882#2.63 908560881#0 908560881#0.35 908560881#0.70 908560881#0.73 908560881#0.74 908560881#0.76 908560881#0.78 908560881#0.81 908560869#1 908560869#1.23 908560869#1.32 908560869#1.55 908560869#1.70 -45378643#0 -45378643#0.26 -45378651#11 -45378651#10 -45378651#9 -45378651#9.1 -45378651#8 -45378651#8.10 -45378651#7 -45378651#7.24 -908560885#3 -908560885#3.25 -908560885#3.32 -908560885#3.37 -908560885#2 -908560885#2.2 -908560884#2 -951347809 -908560901#12 -908560901#10 -908560901#9 -908560901#9.4 -908560901#9.59 -313316104#0 -313316082 -45378649#12 896786247#0 896786247#0.38 -908869234#0 -908869234#0.11 -908869250#0 -908869250#0.11 -908869250#0.41 -45378649#10 -45378649#10.20 -45378649#9 -45378649#9.7 -45378649#7 -45378649#7.4 908869241#0 908869241#0.15 908869241#0.77 -908869239 -908869239.8 -908869239.11 -908869239.13 -908869239.15 -908869239.18 -45378649#3 -45378649#3.8 -896786265#8 -896786265#7 -896786265#7.11 951354765#0 951354763#1 951358824#1 -896786265#5 -896786265#4 -896786265#4.59 -896786265#2 -896786265#0 896786266#11 896786266#11.13 909024250#0 909024250#1 909024250#2 909024250#4 909024250#5 909024250#6 909024239#0 909024239#1 909024239#1.17 909024239#2 909024239#2.40 877398366#3 877398366#4 877398366#6 877398366#8 877398366#8.29 877398366#8.95 877398366#9 877398366#11 877398366#11.20 896786284#1 -877396860#9 -877396860#9.4 -877396860#8 -877396860#7 -877396860#6 -877396860#4 -877396860#3 -951975994 896786325#3 -896786323#0 -896786323#0.137 -896786323#0.139 -896786323#0.141 -896786324#0 -896786324#0.19 -896786324#0.132 -896786324#0.177 -877395784#19 -877395784#17 -877395784#17.8 -877395784#17.24 -951946803#2 -951946816#13 -951946816#13.3 -951946816#13.8 951951634#0 951951634#1 951951634#1.75 951951634#1.79 951951634#1.82 951951634#1.86 -951951632#0 951946805#2 951946837#0 951946837#1 951946837#2 951946834#1 -951946833#7 951951631#0 951951631#1 951951635#2 -951946806#8 951951629 -951951630 -951946806#1 -951946806#1.48 -951946806#1.55 -951946806#1.61 -951946806#1.69 -951946806#1.82 -951946806#1.90 -951946806#1.98 -951946806#0 -952365020 -952365021 -951878231#2 -951951643#6 951951644#0 -951951642#4 -951951642#3 -951951642#3.15 -951951642#3.18 -951951642#3.20 -951951642#3.23 -951951642#3.36 -951951642#3.39 -951951642#3.41 -951951642#3.43 951951646 -951951643#2 -951951643#1 951951648#0 951951649 -951878263#6 -951878263#5 -951878269#15 -951878269#14 -951878269#13 -951878269#12 -951878269#10 -951878269#9 -951878269#7 -951878269#6 951891765#0 -951887656#1 951878272#1 951878272#2 951878272#4 951878272#5 904196454#2 951887659#0 -951887660#5 -951917022 951887661#1 951887661#2 951887661#3 951878266#0"/>
</vehicle>
<vehicle id = "veh12" type= "veh_passenger" depart="14420" >
<route edges =" 951370989 951370989.40 951370989.47 951370989.53 951370989.56 951370989.62 951370989.64 951370989.67 -902433320#1 -902433320#0 902433321#2 -45342799#20 -45342797#4 -951368600#1 -951368603#1 951368601#0 -951368602#1 -951368602#0 45342835#1 45342835#2 45342809#2 45342809#3 45342798#3 -45342837 -45342836#0 45342818#2 951370985#0 951370985#1 45342839#0 45342839#1 -45342840#2 671416444#0 671416442#0 671416442#1 671416442#2 -45342838#1 -45342838#0 45342810#1 45342810#2 45342810#3 45342810#4 45342810#4.21 45342810#5 45342810#6 45342810#6.38 45342810#7 45342810#7.73 45342810#8 45342810#8.39 951366785 -44740885#14 -44740885#14.36 -44740885#14.40 -44740885#13 -44740885#13.4 -44740885#13.21 -44740885#13.24 -44740885#13.27 -44740885#13.31 -44740885#13.35 -44740885#13.56 -44740885#13.59 -44740885#13.62 -44740885#12 -44740885#12.2 -44740885#12.5 -44740885#11 -44740885#11.4 -44740885#11.8 -44740885#10 -44740885#9 -44740885#9.34 -44740885#8 -44740885#7 44740902#12 44740902#13 44740902#14 44740902#14.81 44740902#14.94 -874839172#0 -44740943 -313316091#20 951438760#0 -672215964 672215965#1 44740922#1 951438759 -44740929#3 951438763#0 951438763#0.24 951438763#0.27 951438763#0.28 951438763#0.32 951438763#0.37 -951438762 -44740929#1 44740967#4 44740922#5 44740922#5.74 44740922#6 44740922#7 44740922#8 955410234 102277232#1 44739167#9 44739167#10 -44740926#5 44740925#2 44740925#3 -44740927#14 44739167#12 -44740953#3 -44740953#2 -951438764 -951438764.47 -951438764.119 45378639#0 45378639#0.48 -45378689#5 -45378689#4 45378686#0 45378686#1 45378658#1 45378658#2 45378658#3 -45378683#3 -45378653#6 -45378685#3 45378655#4 -45378656#1 -45378656#0 -45378656#0.43 -45378656#0.46 -45378656#0.48 -45378656#0.49 -45378656#0.51 -45378656#0.58 -45378656#0.60 -45378656#0.62 -45378656#0.64 45378654#1 45378657#4 -44739163#20 -44739163#19 -44740918#2 -44740918#1 44740931#0 -44740919#0 -951358792 -951358792.26 -951358792.42 -951358792.53 -951358792.66 896892969#18 -971495601#9 -971495601#9.28 -971495601#8 -971495601#7 -44740916#11 -909019783 -909019783.98 -971495601#3 -971495601#1 -971495601#0 -313316086 -44739144#26 -44739144#24 909024272#0 909024272#0.29 909024273#0 909024273#0.33 909024273#1 909024273#2 -909024275#1 -909024275#0 -909024275#0.56 -909024279#2 -909024279#2.12 -909024279#1 -909024279#1.6 -909024279#1.9 -909024279#1.11 -909024279#1.14 -909024279#1.17 -909024279#0 -909024279#0.11 896786295#9 -896786271#2 -896786271#2.29 -896786271#1 -896786271#0 -896786272#0 896786279#1 896786279#2 896786279#2.21 896786269#5 896786268#0 896786268#1 896786275#0 896786275#0.22 896786275#1 896786275#1.7 909024281 909024281.8 896786270#1 896786269#9 896786295#12 896786295#12.9 896786295#13 -896786294#5 -896786294#5.6 -896786294#5.10 -896786294#5.13 -896786294#5.16 -896786294#5.19 -896786294#5.22 -896786294#4 -909024256#1 -909024256#1.22 -909024256#1.80 -896786277#3 -896786277#2 -896786277#0 877398366#16 904286386#0 904286386#1 904286386#1.27 904286386#2 904371474#0 904371474#0.21 904371473#0 904371473#1 904371473#1.24 -904371471 -904371472#0 -904371482#1 -904371482#1.50 -904371482#1.65 -904371482#0 -904371482#0.24 -904371482#0.73 671191683#6 671191683#7 904286387#0 904286387#0.24 904286387#1 951973453#0 -951973454 951973452#2 951973452#3 -904371488#8 -904371488#8.6 -904371488#8.17 -904371488#7 -904371488#7.3 -904371488#7.6 951992361 -951973451#1 -951973451#0 671191683#1 671191683#1.7 671191683#1.21 671191683#3 671191683#4 -904371473#4 -904286388#0 -904286386#6 -904286386#4 -904286386#4.23 904371470#1 904371470#2 -904286381#6 -951992355 -904286385#10 -904286385#9 -951992348 904371486#1 904371486#2 904371486#4 904371486#4.3 -951973462#3 -951973462#3.3 -951973462#3.5 -951973462#3.8 -951973462#3.10 -951973462#3.15 -951973462#3.18 -951973462#3.21 -951973462#3.25 -951973462#3.31 -951973462#3.34 -951973462#3.38 -951973462#3.47 -951973462#3.53 -951973462#3.58 -951973462#3.69 -951973462#3.74 -951973462#3.79 -671191682#1 -671191682#0 904371489#1 904371489#1.4 904371489#1.8 904371489#1.11 904371489#1.34 951973468#0 951973468#1 -951973469 904371490#2 -904371492#6 -904371456#3 -904371456#2 -904371456#2.22 -951973471#1 -951973471#0 -671191680#1 -671191680#1.13 -671191680#0 -671191680#0.38 -671191680#0.44 -671191680#0.48 -671191680#0.53 -671191680#0.58 -671191680#0.63 -671191680#0.76 -896786327#0 -877395784#21 -877395784#21.14 -951951638#10 -951951638#10.18 951973434#1 951951639#3 951951639#4 -951973432#1 -951951638#7 -951951638#5 -951951638#4 -951951638#3 -951951638#2 -951946794#1 951951639#14 951951639#15 896786337#6 896786337#7 896786337#8 896786337#8.8 896786337#10 896786337#10.21 -951887700#20 -951887695#5 -951887682#5 951887686#0 951887686#1 -951887700#18 -951887700#17 -951887700#17.17 -951887689 -951887688#0 951887687#1 951887687#1.5 951887687#1.11 -951887700#15 -951961243 -951961242#0 -951961240#1 -951961245 951891772#0 -951891773 -951891771#0"/>
</vehicle>
<vehicle id = "veh13" type= "veh_passenger" depart="14420" >
[...]
</vehicle>
<vehicle id = "veh18" type= "veh_passenger" depart="21630" >
<route edges =" 951370989 951370989.40 951370989.47 951370989.53 951370989.56 951370989.62 951370989.64 951370989.67 -902433320#1 -902433320#0 902433321#2 45342799#21 45342809#0 45342809#1 45342809#2 -45342834#2 -45342834#1 -45342834#0 44740902#8 44740902#9 44740902#9.47 44740902#10 44740902#10.9 44740902#11 -44740885#6 -44740885#5 -44740885#5.33 -44740885#4 -44740885#3 -44740901#6 -44740901#5 44740896#0 44740896#1 44740896#2 44740896#3 -44740959#1 -44740959#0 44740895#3 974189220#3 951417475#1 -671399049#1 -671399049#0 -671399051#0 -44740942#1 -44740901#0 -313316089 -951438761 -44740929#5 -44740929#4 -951438759 44740922#2 44740922#2.25 44740953#0 44740953#2 44740940#0 44740940#1 -44740948#1 -951438765 313316091#11 313316091#12 -671761561 45378689#5 45378639#1 45378639#1.38 45378639#2 45378639#2.25 45378639#2.39 951439125#0 951439125#0.15 951439125#0.23 951439125#0.33 951439125#1 45378641#1 45378641#1.76 -45378640#3 -45378640#2 -45378640#1 -45378640#0 45378655#1 -45378683#1 -45378683#0 -45378683#0.55 -313316091#6 -313316091#5 -313316091#5.44 -313316091#4 -313316091#4.67 -44739163#20 -44739163#19 -44739163#18 44740927#10 951358806#0 951358806#1 44740926#8 -44739163#16 -44740981#1 44740983#0 44740983#1 -44740927#8 -44740927#6 -951358798#1 -951358798#1.14 -951358798#0 -951358798#0.10 -951358798#0.14 -951358798#0.17 -951358798#0.19 -951358798#0.21 -951358798#0.22 -951358798#0.24 -951358798#0.36 -951358798#0.39 -951358798#0.41 -951358798#0.42 -951358798#0.45 -951358798#0.47 951358797#1 951358797#2 951358797#2.23 951358797#3 -951358800#0 -44740918#1 -44740918#0 44740920#6 44740920#8 -313316091#0 -313316091#0.27 -313316091#0.72 -313316091#0.80 45340579#18 45340579#18.164 44740932#0 -44740934#4 668599377#0 668599377#0.33 668599377#1 668599377#1.37 44740916#9 44740916#9.64 44740916#11 -971495601#6 -971495601#5 -971495601#3 -951346855#1 -951346855#1.22 -951346855#1.42 -951346855#1.57 -951346855#0 -951346855#0.7 -951346855#0.23 -908560900#2 -908560900#1 908560901#22 908560901#22.77 908560901#22.89 -971495601#0 -313316086 -44739144#26 -44739144#24 909024272#0 909024272#0.29 909024272#1 909024272#1.30 909024272#1.53 909024271#1 896786294#11 896786294#11.40 -909024262#1 -909024262#1.12 909024261 909024261.37 -702673217#1 -702673217#0 -44739144#18 -877398366#21 952002225#0 -909024265#2 -909024265#2.29 909024264#0 -909024263 -909024263.30 -909024265#0 896786289#1 896786289#1.39 896786289#2 896786289#3 -896786294#8 -896786294#7 -896786294#7.20 -896786294#6 -896786294#5 -896786294#5.6 -896786294#5.10 -896786294#5.13 -896786294#5.16 -896786294#5.19 -896786294#5.22 -896786294#4 -896786294#3 -896786294#3.26 -896786294#2 -896786294#2.7 -896786294#0 -896786294#0.13 904286386#0 -909024293#1 -909024293#1.14 -909024293#1.28 -909024290 -909024290.32 -877396860#16 904286386#2 904286386#3 904286386#3.9 904286386#3.31 904286386#4 904286386#4.19 -904286385#15 -904286385#15.42 904286384#0 904371470#2 -896786290#0 -904286385#12 -904286385#10 -904286385#9 -904286385#8 -904371487#1 -904371487#1.16 -904371489#2 951973468#0 -904286385#5 -904286385#5.9 -904286385#4 -904286385#3 904371491 904371492#3 951973476#0 951973476#1 -951973471#2 -951973471#2.11 -951973471#2.14 -951973471#2.17 -951973471#2.20 -904371456#1 -904371456#0 -904371456#0.17 -671191680#0 -671191680#0.38 -671191680#0.44 -671191680#0.48 -671191680#0.53 -671191680#0.58 -671191680#0.63 -671191680#0.76 -896786327#0 -877395784#21 -877395784#21.14 -951951638#10 -951951638#10.18 951973434#1 951951639#3 951973426#1 -951951638#8 -951951638#7 -951951638#5 -951951638#4 -951951638#3 952000398 951951639#13 -951946794#0 951946792#1 896786337#8 896786337#8.8 896786337#10 896786337#10.21 -951887700#20 -951887700#19 -951887700#18 -951887700#17 -951887700#17.17 -951887700#16 -951887700#15 -951887700#14 -951887679#2 -951887679#1 -951887679#1.32 -951887679#1.35 -951887679#1.38 -951887679#1.41 -951887679#0 951887678#1 951887678#2 951887700#10 951887700#11 951961240#0 951961240#0.54 951961240#0.57 951961240#0.59 951961240#0.62 -951961245 951891772#0 -951891773 -951891771#0"/>
</vehicle>
<vehicle id = "veh19" type= "veh_passenger" depart="21630" >
<route edges =" 45342801#5 45342801#5.32 902433317#3 902433317#4 951368598#0 -951381446#0 951368595#1 951368595#1.17 951368595#1.34 902433317#8 902433317#8.29 902433317#9 951368594#0 951368594#1 951368594#2 972507120#3 -951369746#4 -951369746#4.24 -951369746#4.27 -951369746#4.29 -951369746#2 -951369746#2.3 -951369746#2.36 -951369746#2.42 -951369746#2.45 -951369746#2.50 -951369746#1 -951369746#1.3 -951369746#1.9 -951369746#1.18 -951369746#1.26 -951369746#1.35 -951369741#4 -951369741#2 -951369741#2.8 -951369741#2.11 -951369741#2.13 -951369741#2.16 -951369741#2.19 -951369741#2.22 -951369741#1 -951369741#1.20 -951369741#1.25 -951369741#1.30 45344273#27 45344273#27.17 45344273#28 45344273#29 45344273#29.12 45344273#29.34 45344273#30 45344273#30.8 45344273#30.25 45344273#30.39 45344273#31 45344273#31.5 45344273#31.16 45344273#32 45344273#32.22 45344273#32.44 45344273#33 950780326#0 950780326#0.30 950780326#0.63 950780326#1 950780326#1.17 950780326#1.24 950780326#1.29 950780326#1.45 950780326#1.86 903341095#2 -45344278#0 -45344278#0.14 -45344278#0.18 -45344278#0.21 45344273#35 45344273#35.26 -950235692#4 950235699#4 950235703#0 950235703#0.10 950235703#0.22 950235703#0.33 950235703#0.48 950235703#0.64 950235703#0.87 950235703#0.105 950238177#0 950238177#0.24 950238177#0.27 950238177#0.31 950238177#0.61 950238177#0.78 950238177#0.94 950235705#0 950455048#0 950455048#0.35 950455048#0.40 950455048#0.45 950455048#1 950455048#1.12 950455048#1.23 950455048#1.41 -950235694#6 -950235694#6.23 -950235694#6.27 -950235694#6.30 -950235694#6.35 951381436 951381436.26 951381436.34 951381436.39 951381436.45 -897252875#0 -897252875#0.4 -897252875#0.15 -897252875#0.35 897252876#3 897252876#4 45344320#2 45344320#3 -45344331#4 -45344327#0 -45344329#6 -45344329#5 -45344329#4 902433295#3 45344330#0 45344330#1 45344333#1 45344333#2 -45344331#1 -45344331#0 45344326#3 699875133 699875130#1 699875130#3 699875130#3.37 -897172091#0 -45344294#6 -45344294#6.9 -45344294#6.25 951381432#0 951381432#0.88 951381432#0.91 951381432#1 951381432#1.2 951381432#1.5 951381432#1.8 -951370961#1 -951370960 -897252858#0 951370959 951370959.15 951370959.16 951370959.17 951370959.18 951370959.20 951370959.23 951370959.24 951370959.25 951370959.26 -45344294#4 -45344294#4.7 -45344294#4.18 -45344294#3 897252857 897252858#2 897252858#3 -45344286#12 -45344286#11 951404497 951404497.20 951404497.26 951404497.33 951404497.38 951404497.43 -897252855#0 -45344287#0 -45344287#0.5 -45344287#0.14 -951384608#1 -951384608#1.59 -951384608#1.63 -951384608#1.67 -951384608#1.69 -951384608#1.73 -951384608#0 -951384608#0.43 -951384608#0.47 -951384608#0.50 -951384608#0.52 -702632123#1 -702632123#1.4 -702632123#0 45344272#13 45344272#13.4 45344272#13.35 45344298 896892974 971495602#11 971495602#12 971495602#12.26 971495602#12.77 951442813 951442812#0 -896786335#50 -896786335#49 -896786335#48 -896786335#48.15 -896786335#47 -896786335#46 -896786335#44 -896786335#44.9 -896786335#44.71 -896786335#43 -896786335#42 -896786335#42.22 896892983#0 896892983#0.10 896892983#1 896892983#1.19 896892983#2 896892983#2.46 896892983#3 896892983#3.35 896892982#0 896892982#0.29 896892982#1 896892982#2 -896786335#39 -896786335#39.27 -908869251 -908869251.5 -908869251.7 -908869251.10 -908869251.12 -908869251.30 -908869251.35 -908869251.40 -908869251.44 -908869251.48 -908869251.66 -908869251.70 -908869251.73 -908869251.76 -908869251.78 896786248#1 896786248#1.30 896786248#1.43 -951349917#1 -951349917#1.14 -951349917#1.29 -951349917#1.41 -951349917#1.59 -951349918 -951354772#1 -951354772#1.39 -951354772#1.50 -951354772#1.59 -951354772#0 -951354772#0.6 -951355289#1 -951355289#0 896893016#0 896893017#0 -896893018#1 -896893018#1.27 -896893018#0 877388728#14 -896786335#24 -896786335#23 -896786335#23.44 -896786335#22 -896786335#21 -896786335#21.41 -896786335#19 -896786335#18 -896786335#17 -896786335#17.2 -896786335#16 -896786335#16.7 -896786335#15 -896786300#3 -896786300#3.27 -896893012#1 -896893012#0 -896893012#0.11 896786303#5 896786303#5.27 896786303#5.100 896786303#5.124 896786303#6 896786303#6.29 896786302#1 951983592#0 951983592#0.146 951983592#0.152 951983592#0.157 951983592#1 951983592#3 951983592#3.4 951983592#3.8 951983592#3.24 951983592#3.30 951983592#4 951983592#4.48 951983592#4.59 951983592#4.68 951983592#5 951983610 951983611#3 951983608#1 951983609#0 -951983611#0 -951988595#2 -951988595#1 -951988595#1.5 -951988595#1.15 -951988595#0 -951988595#0.6 896786309#16 896786309#16.19 896786309#17 896786309#18 951988603#0 -951988605#1 -951988605#0 -951988604#3 -951930625#1 -951930625#0 -951930625#0.6 -951930625#0.13 -951930625#0.21 -951930625#0.26 -951930625#0.32 951930616#11 -896786309#24 -896786309#24.6 -896786309#22 -896786309#22.8 -951930622 951930618#0 951930618#0.26 951930618#0.29 951930618#0.32 951930618#0.35 -951930619 877389028#1 877389028#1.12 877389028#1.31 -896786310#13 -896786310#12 -896786310#12.9 -896786310#10 -896786310#10.4 -896786310#10.15 -896786310#10.32 -951983616#2 951983617#0 951983617#0.43 877398739#1 877398739#2 877398739#2.30 -951983590 -896786311#9 -896786311#8 896786321#0 896786321#0.46 896786321#0.171 -951976012 -951976012.34 -951976012.37 -951976012.40 -951976012.44 896786321#3 896786321#3.48 896786321#3.103 -896786335#8 -896786335#8.39 -896786335#7 951976007 -951976006#1 -951976006#0 -951976005 896786317#1 896786317#1.17 896786317#2 896786317#2.28 896786317#3 896786317#3.44 -896786335#3 -896786335#3.10 -896786335#2 -896786335#1 -896786335#1.14 -896786335#0 877395784#17 877395784#17.13 877395784#17.29 -951946816#15 -951946816#14 -951946803#1 -951946803#1.55 -951946803#1.59 -951946803#1.61 -951946803#1.64 -951946803#0 951951639#1 951946802 951946795#2 -951946801 951951639#6 951946800#1 951946795#4 951946795#6 951946795#7 -951946797 951951639#11 951946796#0 951946796#1 951946795#10 951946795#11 951946795#11.34 951946795#11.40 951946795#11.45 -951887683 -951887684 -951887682#6 951887695#5 671756019#0 -951961251#1 951961247#0 951961247#1 951961247#1.3 951961247#2 951951644#2 951951644#2.2 951951644#2.5 -951961252 951961249#1 951961249#1.17 951961249#1.19 951961249#1.21 951961249#1.24 -951961255 -951961255.19 -951961255.22 -951961255.25 -951961255.27 951961248#1 -876509484#6 -876509484#6.3 -876509484#6.8 -876509484#6.12 -876509484#6.15 -876509484#5 -951878267#1 -951878267#0 -951878267#0.26 -951878267#0.29 -951878267#0.32 -951878267#0.34 951878265#0 -951878266#5 -951878266#5.22 -951878266#5.29 -951878266#5.37 -951878266#4 -951878266#4.37 -951878266#2 -951878266#1 -951878266#1.39 -951878266#1.47"/>
</vehicle>
<vehicle id = "veh20" type= "veh_passenger" depart="21630" >
<route edges =" -45342801#4 45342799#23 951370988 951370988.6 951370988.11 951370988.16 902433317#6 -951368597 45342799#26 45342799#27 45342799#27.15 45342799#27.20 45342799#27.25 45342799#27.36 972507120#0 972507120#2 45342812#0 45342812#1 -45342811#1 -45342811#0 -45342801#0 -45342798#1 -45342798#0 -45344273#21 -45344273#21.28 -45344273#19 45344322#0 -951440589 -951440589.14 -951440589.17 -951440589.19 -951440589.21 -951440589.37 -951440589.40 -951440589.41 -951440589.44 -951440589.46 45344322#2 897252876#6 897252876#7 897252876#8 897252876#9 897252876#10 -45344293#3 951370980 951370980.48 951370980.53 951370980.55 951370980.56 951370980.58 951370980.60 -951370982#0 -45344293#1 -45344293#1.78 -45344293#0 -45344273#13 -45344273#12 -45344273#11 -45344273#10 -45344273#10.42 -45344273#9 -45344273#8 -45344273#8.10 -45344273#7 -45344273#7.22 -45344273#6 -45344273#6.40 -45344273#6.59 -951384598#3 -951384597 -951384597.29 -951384597.36 -951384597.43 -45344273#3 -45344273#3.6 -45344273#3.14 -45344273#3.31 -45344273#3.48 -45344273#2 -45344273#2.6 -45344273#2.24 -45344273#1 -45344273#1.7 -45344273#0 -897252881 -45378637#10 45378639#7 -951404483#2 -951404483#1 -951404474#1 951404473 -951404484#6 -951404484#5 951404481 45378639#10 45378639#11 45378639#12 45378639#12.8 -45344310#1 -45344310#0 -45344310#0.10 -45344310#0.18 -45344310#0.30 -45344310#0.41 -45344310#0.52 971495602#8 971495602#8.24 971495602#8.86 -313316104#6 -313316104#5 -313316104#5.12 -313316104#5.27 -313316104#5.46 -313316104#4 -313316104#4.4 -313316104#4.18 -313316104#4.31 -313316104#4.41 -313316104#4.56 -313316104#3 -313316104#2 -313316104#2.13 -313316104#2.35 -313316104#2.44 -313316104#1 -313316104#0 -313316082 -45378649#12 896786296#0 896786296#1 896786296#1.36 -896786262#6 -896786262#6.15 -896786262#5 -951354759#4 -951354759#4.12 -951354759#3 951355298#0 951355298#0.23 -951355297#1 -951355296 -951354759#0 -951354759#0.4 -951354759#0.15 -951354759#0.20 -951354759#0.24 -45378649#5 -45378649#5.24 -45378649#5.57 -45378649#5.68 -45378649#3 -45378649#3.8 -45378649#2 -45378649#2.8 -45378649#1 -951354765#1 -951354765#1.60 -951354765#1.64 -951354765#1.67 -951354765#1.70 -951354765#1.74 -951354765#1.99 951354763#1 951354763#2 951354763#3 951354763#4 951995493#1 -896786265#2 -896786265#0 909024253#0 951995490#0 909024242 896786293#7 909024253#2 909024253#2.16 909024252#1 -896786266#7 -896786266#6 -896786266#6.39 896786260#1 896786260#1.37 896786260#3 896786260#4 896786260#4.25 -909024254 -909024254.11 -909024254.37 896786266#3 896786266#4 896786257#2 896786257#2.28 896786257#2.57 896786257#3 896786257#3.14 896786257#4 896786257#5 896786257#6 896786257#6.8 896786257#6.44 896786257#6.53 896786257#7 896786257#7.17 896786257#7.37 896786257#7.44 896786257#7.49 896786257#7.54 -45378665#1 909024239#0 909024239#1 909024239#1.17 -909024237#1 -909024237#1.34 -909024237#1.71 -909024237#1.74 -909024237#1.78 -909024237#1.82 877398366#1 877398366#1.15 877398366#2 877398366#2.36 877398366#3 951995475#4 -904371460#4 -904371460#4.9 -904371460#4.24 -904371460#2 -904371460#2.2 -904371460#1 951995474 -877396860#7 904371461 904371461.86 904371461.132 904371461.161 904371461.165 904371461.167 904371461.172 904371458#1 904371465#0 904371465#1 904371465#2 904371464 896786325#1 -896786328#1 -896786328#0 -896786328#0.177 -877395784#20 -877395784#19 -877395784#17 -877395784#17.8 -877395784#17.24 -877395784#15 -877395784#14 -877395784#14.13 -877395784#13 -877395784#13.47 -951946824 -951946816#7 -951946816#6 -951946816#6.36 -951946816#6.40 -951946816#6.43 -951946816#6.46 951946819#0 951946819#1 951946818#3 951946818#3.2 951946818#3.6 -951946817#3 -951951641 951946833#3 -951946817#5 -951951636 951951635#2 -951946806#8 -951946806#7 -951946806#6 -951946806#6.36 -951946806#6.39 -951946806#6.41 -951946806#6.44 -951946806#4 -951946806#2 -951946806#1 -951946806#1.48 -951946806#1.55 -951946806#1.61 -951946806#1.69 -951946806#1.82 -951946806#1.90 -951946806#1.98 -951946806#0 -952365020 -952365021 -951878231#2 -951878231#1 -951878231#1.26 -951878231#0 951951645 -951951643#3 -951951643#2 876509484#2 876509484#3 -951951650 -951951648#2 -951951648#1 -951951648#0 -951951643#0 951878263#8 951878230#4 -951891772#4 -951961237 951891766#3 951878270#0 951878270#0.33 951878270#0.36 951878270#0.39 951878270#0.42 951878270#2 877401978#0 877401978#1 951878266#0"/>
</vehicle>
</routes>
