<?xml version="1.0" encoding="UTF-8"?>
<routes xmlns:xsi="http: // www.w3.org/2001/XMLSchema-instance" xsi:noNamespaceSchemaLocation="http: // sumo.dlr.de/xsd/routes_file.xsd">
<vType id="veh_passenger" vClass="passenger"/>

<vehicle id = "veh0" type= "veh_passenger" depart="0" >
<route edges =" -45342801#4 -45342801#3 -45342801#2 -45342801#1 -45342801#0 45342798#2 45342798#3 45342798#4 45342798#5 45342813#0 45342813#1 45342813#2 -45342814#1 44740902#11 44740902#12 44740902#13 44740902#14 44740902#14.81 44740902#14.94 -874839172#0 -44740943 -313316091#20 951438760#0 951438760#1 -44740929#4 -951438759 44740922#2 44740922#2.25 44740953#0 44740953#2 44740953#3 44740953#4 44740953#5 44740953#6 44740953#7 44740949#2 -44740919#1 -44740919#0 44740920#8 -313316091#0 -313316091#0.27 -313316091#0.72 -313316091#0.80 -971495601#9 -971495601#9.28 -971495601#8 -971495601#7 -971495601#6 -971495601#5 -971495601#3 -971495601#1 -971495601#0 -313316086 -44739144#26 -44739144#24 -44739144#22 -44739144#21 -44739144#20 -44739144#19 -44739144#19.14 -44739144#18 -877398366#21 -877398366#20 -877398366#19 -877398366#18 -877398366#17 -877398366#17.7 -877398366#16 -877398366#15 -877398366#15.29 -877398366#14 -877398366#14.72 -877398366#13 -671191680#14 -671191680#13 -671191680#11 -671191680#9 -671191680#8 -671191680#6 -896786326#1 -896786326#0 -896786328#0 -896786328#0.177 -951951638#10 -951951638#10.18 -951951638#9 -951951638#8 -951951638#7 -951951638#5 -951951638#4 -951951638#3 -951951638#2 -951946794#1 -951946794#0 951946792#1 896786337#8 896786337#8.8 -951887683 -951887684 -951887682#6 -951887682#5 -951887682#4 -951887682#3 951887692 -951887691#0 -951887682#0 -951887700#14 -951961240#3 -951961240#1 -951961245 951891772#0 -951891773 -951891771#0"/>
</vehicle>
<vehicle id = "veh1" type= "veh_passenger" depart="0" >
<route edges =" 45342801#5 45342801#5.32 902433317#3 902433317#4 902433317#6 902433317#7 902433317#8 902433317#8.29 951368593#1 972507120#2 45342812#0 45342812#1 45342811#2 45342811#2.66 45344273#23 45344273#23.11 45344273#24 -897252873#2 -897252873#1 -897252873#1.42 -897252873#0 -897252873#0.25 897252876#4 45344320#2 45344320#3 -45344331#4 45344327#1 903341090 -45344335#4 -950235690#1 -950235690#0 -950235690#0.14 700254525#11 700254524#0 700254523 -700254525#0 45344272#4 950233988#0 45344283#9 45344283#10 45344283#10.15 45344283#10.46 45344283#10.69 45344283#10.88 45344283#10.150 45344283#10.196 45344283#10.260 45344283#10.377 45344283#10.468 45344283#10.514 670655885 670655885.12 896892975 971495602#12 971495602#12.26 971495602#12.77 951442813 951442812#0 -896786335#50 -896786335#49 -896786335#48 -896786335#48.15 -896786335#47 -896786335#46 -896786335#44 -896786335#44.9 -896786335#44.71 -896786335#43 -896786335#42 -896786335#42.22 -896786335#41 -896786335#40 -896786335#39 -896786335#39.27 -896786335#37 -896786335#36 -896786335#34 -896786335#33 -896786335#32 -896786335#32.17 -896786335#31 -896786335#31.22 -896786335#30 -896786335#29 -896786335#29.17 -896786335#28 -896786335#27 -896786335#27.19 -896786335#26 -951995494#1 -951995491#2 -951995491#1 -951995491#0 -896786266#12 909024250#0 909024250#1 909024250#2 909024250#4 909024250#5 909024250#6 909024239#0 909024239#1 909024239#1.17 909024239#2 909024239#2.40 -951983585 -951975994 -896786324#1 -896786324#0 -896786324#0.19 -896786324#0.132 -896786324#0.177 951951639#0 951946803#0 951946795#1 951946795#2 951946795#3 951946795#4 951946795#6 951946795#7 951946795#9 951946795#10 951946795#11 951946795#11.34 951946795#11.40 951946795#11.45 896786337#10 896786337#10.21 -951887700#20 -951887700#19 -671756019#4 -951961235 951961234#1 -951878265#2 -951878265#1 -951878265#0 951878264#2 -951878263#3 -951878266#4 -951878266#4.37 -951878266#2 -951878266#1 -951878266#1.39 -951878266#1.47"/>
</vehicle>
<vehicle id = "veh2" type= "veh_passenger" depart="0" >
<route edges =" 951370989 951370989.40 951370989.47 951370989.53 951370989.56 951370989.62 951370989.64 951370989.67 -902433320#1 -902433320#0 902433321#2 45342799#21 45342809#0 45342809#1 45342809#2 45342809#3 45342809#4 45342809#5 45342809#6 45342809#7 45342809#8 44740885#10 -45342826#1 -45342826#0 45342825#1 45342825#2 45342828#0 45342828#1 45342828#1.100 -45344273#6 -45344273#6.40 -45344273#6.59 -951384598#3 -951384598#2 -951404491 -951404491.16 -951404491.28 -951404491.40 -951404491.51 -951384599#0 700249213#9 700249213#10 700249213#11 45342808#10 45342808#11 45342808#11.24 45342808#12 -897252871 -897252870 -45344310#2 -45344310#1 -45344310#0 -45344310#0.10 -45344310#0.18 -45344310#0.30 -45344310#0.41 -45344310#0.52 971495602#8 971495602#8.24 971495602#8.86 -313316104#6 -45378650#5 -45378650#5.11 -45378650#4 45378645#0 45378645#0.44 -908846596#3 -908846596#2 45378650#1 -908846593 -908846593.73 908560901#8 908560901#8.23 908560901#8.56 -313316104#0 -313316082 -45378649#12 896786296#0 896786296#1 896786296#1.36 -896786262#6 -896786262#6.15 -896786262#5 -896786262#4 -896786262#4.31 -896786262#3 -896786262#3.9 -896786262#1 -896786262#0 -896786262#0.33 -896786262#0.115 -896786260#1 -896786260#1.5 -896786260#0 -896786260#0.52 896786257#4 909024248 909024248.50 -45378665#3 -45378665#3.29 -45378665#3.50 -45378665#2 -45378665#2.36 -45378665#1 -45378665#0 -45378665#0.39 -45378665#0.75 -896786335#14 -896786335#14.27 -896786335#13 -896786335#12 -896786335#12.15 -896786335#11 -896786335#10 -896786335#10.38 -951976010#1 -951976011#0 896786321#2 -896786320#3 -896786320#3.5 -896786320#1 -896786320#0 -896786316#3 -896786316#2 -896786316#1 -896786316#1.33 -896786314 -951930663#1 -951930663#0 -877395784#11 -877395784#11.58 951946825#0 951946825#1 -951946816#4 951946844 877399011#1 951946810#2 -896786337#14 -896786337#14.40 -896786337#14.111 -952365020 -952365021 -951878231#2 -951951643#6 -951951643#5 -951951643#4 -951951643#3 -951951643#2 876509484#2 -951951642#1 -951951642#0 -951878263#5 -951878269#15 -951891772#2 -951891774 951891771#2 951878270#2 877401978#0 877401978#1 951878266#0"/>
</vehicle>
<vehicle id = "veh3" type= "veh_passenger" depart="3605" >
<route edges =" -45342801#4 -45342801#3 -45342801#2 -45342801#1 -45342801#0 45342798#2 45342798#3 45342798#4 45342818#0 -45342817#2 -45342803#7 951370984#0 45342816#1 -45342814#2 -45342813#2 951370984#2 44740902#10 44740902#10.9 44740902#11 44740885#7 -45342841 45342802#2 -45342803#1 -45342803#0 -45342843#2 -45342843#1 -45342843#0 44740957#2 671399046#1 -671399056 671399058#2 -44740901#3 -44740901#2 -671399049#1 -671399049#0 -671399051#0 -44740942#1 -44740942#0 974189220#5 902433296 44740967#0 44740929#7 44740929#8 -44740960#1 44740962#0 44740962#1 44740962#2 -44740930#15 -44740930#14 -44740930#13 -44740930#12 -44740930#11 -44740922#7 -44740922#6 -44740922#5 -44740922#5.62 -44740927#17 44740923#3 -44740953#0 -44740922#2 -44740922#2.83 951438759 44740929#4 -951438760#1 -951438760#0 -313316091#19 -313316091#18 -313316091#18.26 -313316091#17 -313316091#16 45378639#0 45378639#0.48 -45378689#5 -45378689#4 45378686#0 45378686#1 -45378658#0 45378639#2 45378639#2.25 45378639#2.39 951439125#0 951439125#0.15 951439125#0.23 951439125#0.33 951439125#1 -45378641#0 45378658#2 -45378640#1 -45378687#1 -45378688#1 -45378688#0 -45378689#1 -45378689#0 -45378683#0 -45378683#0.55 -44739167#15 -44739167#15.17 -44739167#14 -44740945#1 44740946#0 44740948#0 44740948#1 -44740940#1 -44740940#0 44740953#3 -44739167#12 -44740927#13 -44740927#12 951358802 951358805#1 -44740928#1 -44740928#0 -44740928#0.75 -44740930#6 -44739163#14 102277232#3 102277232#4 102277232#4.80 102277232#4.133 102277232#4.154 102277232#5 102277232#6 672803221 672803221.14 672803221.21 672803221.29 672803221.35 672803221.40 896892969#12 44740930#0 44740930#0.11 951358794#0 44740939#0 44740939#1 -44740920#0 44740930#4 44739156#14 44740981#0 44740983#0 44740983#1 -44740927#8 -44740927#6 -44740927#5 -44740927#4 951438767 951438767.14 951438767.19 951438767.25 951438767.33 951438767.38 -951358798#0 -951358798#0.10 -951358798#0.14 -951358798#0.17 -951358798#0.19 -951358798#0.21 -951358798#0.22 -951358798#0.24 -951358798#0.36 -951358798#0.39 -951358798#0.41 -951358798#0.42 -951358798#0.45 -951358798#0.47 951366797 951366797.33 951366797.34 951366797.36 951366797.38 951366797.40 951366797.54 951366797.60 951366797.64 951366797.69 951366797.70 951366797.72 951366797.74 951366797.75 951358797#2 951358797#2.23 951358797#3 -951358800#0 -44740918#1 44740931#0 -44740919#0 -951358792 -951358792.26 -951358792.42 -951358792.53 -951358792.66 896892969#18 -971495601#9 -971495601#9.28 -971495601#8 -971495601#7 -971495601#6 -971495601#5 -971495601#3 -44740910#8 -671410531#2 -671410531#1 -671410531#1.53 -671410531#1.57 -671410531#1.63 -671410531#0 -909019784#0 313316100#8 313316100#8.72 -971495601#0 -313316086 -44739144#26 -903953334#9 -903953334#9.24 -903953334#9.50 -903953334#9.58 -903953334#8 -903953334#8.6 -903953334#8.17 -903953334#8.53 -903953325#4 -903953325#3 909778546#0 909778546#1 909778547#2 -903953325#1 903953324#0 903953324#1 903953324#1.22 702673217#0 702673217#1 702673217#2 -896786289#2 -877398366#18 -877398366#17 -877398366#17.7 896786294#0 896786294#0.33 896786276 896786276.34 -896786277#0 -877398366#15 -877398366#15.29 -877398366#14 -877398366#14.72 -904286382#4 -904286382#4.34 -904286382#3 -904286378#1 -904286378#0 -904286380#2 877396860#13 -896786290#2 -904286383#1 -904286384#1 -904286384#1.25 -904371470#1 -904371470#0 904371473#1 904371473#1.24 -904371471 -904371472#0 -904371482#1 -904371482#1.50 -904371482#1.65 -904371482#0 -904371482#0.24 -904371482#0.73 951973452#0 951973452#1 951973452#2 -951973451#3 -951973451#1 -951973451#0 671191683#1 671191683#1.7 671191683#1.21 671191683#3 671191683#4 -904371473#4 -904286388#0 -904286386#6 -904286385#15 -904286385#15.42 904371468 904371468.35 904371468.46 904371468.50 904371468.53 904371468.59 -904371488#1 951992356 951992356.11 951992356.20 951992356.29 896786290#0 -904286381#6 -951992355 904286375#0 904286375#1 904286375#2 904286375#2.11 904286374 -904286381#0 -904371463#1 -904371463#1.79 904371462#0 -877396860#8 -877396860#7 -877396860#6 -877396860#4 -896786328#3 -896786328#3.70 904371467#0 904371464 896786325#1 -896786328#1 -896786328#0 -896786328#0.177 877395784#21 877395784#21.6 877395784#22 877395784#22.56 904371492#0 904371492#0.68 951973474#0 951973474#1 -951973473#0 951973472#1 -904371491 904286385#3 -951973457 904371492#5 -904371456#3 951973471#4 -951973470#0 -904371490#2 951973469 -951973468#1 904286385#6 904286385#8 -951992348 904371486#1 904371486#2 904371486#4 904371486#4.3 -951973462#3 -951973462#3.3 -951973462#3.5 -951973462#3.8 -951973462#3.10 -951973462#3.15 -951973462#3.18 -951973462#3.21 -951973462#3.25 -951973462#3.31 -951973462#3.34 -951973462#3.38 -951973462#3.47 -951973462#3.53 -951973462#3.58 -951973462#3.69 -951973462#3.74 -951973462#3.79 -671191682#1 -671191681#3 -671191681#3.14 -671191681#2 -671191681#1 -671191681#0 -904286385#0 -952002224#7 -952002224#7.17 -952002224#7.71 -952002224#6 -952002224#5 -952002224#5.5 951973430#0 -951951638#4 -951946798#0 -952002224#3 -952002224#3.30 -952002224#3.48 -952002224#3.80 904286410#0 904286410#0.33 904286409#0 904286409#1 904286409#2 904286409#2.7 -951874859#0 951874858#0 -951874860#4 -951874871 -951874871.18 -951874871.21 -951874871.24 -951874871.28 951874858#2 896786339#3 896786339#3.3 896786339#4 896786339#4.4 -904286410#3 -904286410#2 -904286411#3 951874850#0 951874850#1 951874850#1.25 951874850#1.28 951874850#1.31 951874850#1.34 951874850#1.54 951874850#1.57 951874850#1.59 951874850#1.62 -951874849#0 -951874848#0 -952002224#1 896786337#4 896786337#5 896786337#5.11 896786337#6 896786337#7 896786337#8 896786337#8.8 -951887683 -951887684 -951887682#6 -951887682#5 -951887682#4 -951887682#3 951887692 -951887691#0 -951887682#0 -951961243 -951961242#0 -951961240#1 -951961245 951891772#0 -951891773 -951891771#0"/>
</vehicle>
<vehicle id = "veh4" type= "veh_passenger" depart="3605" >
<route edges =" 45342801#5 45342801#5.32 902433317#3 902433317#4 902433317#6 902433317#7 902433317#8 902433317#8.29 951368593#1 -903341083#3 -903341083#2 -903341083#1 -951368605#2 -951368605#1 -951368605#0 45342811#1 45342811#2 45342811#2.66 45344273#23 45344273#23.11 45344273#24 -897252873#2 -897252873#1 -897252873#1.42 -897252873#0 -897252873#0.25 897252876#4 45344320#2 -45344329#7 -45344329#6 -951381435 -45344331#2 -45344331#1 952274660 952274660.29 952274660.31 952274660.34 951404486#1 -45344326#0 -45344326#0.20 -45344326#0.39 45344330#1 -45344333#0 -45344329#4 -45344329#3 -45344329#2 897252884#0 897252884#1 897252884#1.14 897252884#1.26 897252884#1.51 897252884#1.72 897252884#1.89 897252884#1.109 897252884#1.138 897252884#1.166 897172091#3 897172091#4 897172091#5 897172091#6 897172091#8 699875131#0 699875130#0 699875130#0.20 699875130#1 45344297#0 45344297#0.22 45344335#0 45344335#0.43 45344335#1 699875131#2 -950400194#2 -950400194#1 -950400193#1 950400192#0 -950235689#0 700254525#8 700254525#9 950235690#0 950235690#0.11 950235690#1 45344335#4 45344335#5 -950235691#2 -950235691#2.50 -45344320#7 -45344320#7.6 -45344320#7.12 -45344320#7.25 -45344320#7.29 -45344320#7.33 -45344320#7.37 -45344320#7.54 45344335#8 -45344336#7 -45344336#7.6 950235692#0 950235692#1 950235692#2 950235692#3 950235692#4 -45344273#35 -45344273#35.27 45344278#0 45344278#0.58 45344278#0.62 45344278#0.65 45344278#1 45344278#2 45344278#2.33 -950780326#2 -903341095#1 -903341095#0 45344276#0 -950759346#1 -950759346#0 950806855#5 -45344278#5 950238180#0 950238180#1 950238184#4 -950235722#2 -950235722#1 -950235722#1.25 -950235722#1.38 -950235722#1.43 -950235722#1.46 950806859 950806859.14 950806859.25 -45344277#4 -45344277#3 -45344277#2 -45344277#1 -950235726#1 950235725#1 950235725#2 950235725#3 950235725#4 950235725#5 950235725#7 897252880#4 950235729#0 950235729#1 950235729#2 -950235733#2 -950235733#2.11 -950235733#2.21 -950235733#2.34 -950235733#2.46 950641812#3 950641812#4 950641816#9 950235732#0 950235732#1 -950235733#0 45344271#9 45344271#9.23 45344271#10 897252880#7 897252880#7.68 950238184#0 950238184#1 -950780324#0 -950780324#0.30 950238181#1 -950238182#0 950238178#3 950238179#0 950238179#1 45344273#38 45344273#38.38 45344273#38.50 45344273#38.62 -950235700#3 -950235700#2 -950235697#3 -950235697#2 950732875#0 -950235702 950235695#2 950235695#3 -45344336#5 -45344336#4 -45344336#3 -45344336#2 -45344336#1 -950238193#2 950553573 45344284#2 45344284#3 -950238192#4 -950238192#3 -950238192#2 -950238192#2.18 -950238192#2.21 -950394094 -950394094.12 -950394094.16 -950394094.20 -950394094.25 -950394094.28 -950394094.30 -950241229#0 -950241233#0 45344280#11 45344280#11.11 45344280#11.23 45344280#12 45344284#0 -950553572 -950238193#0 45344280#14 45344280#14.13 45344280#15 45344283#5 -950553582#2 -950553582#2.27 -950553582#1 -950553582#1.2 -950553582#1.5 -950553582#1.66 -950553582#1.76 -950553582#1.84 -950553582#1.90 -950553582#1.96 -950553582#1.103 -950553582#1.114 -950553582#1.120 -950553582#0 -950553582#0.6 -950233989#0 45344283#7 45344283#7.36 45344283#8 45344283#9 45344283#10 45344283#10.15 45344283#10.46 45344283#10.69 45344283#10.88 45344283#10.150 45344283#10.196 45344283#10.260 45344283#10.377 45344283#10.468 45344283#10.514 670655885 670655885.12 896892975 971495602#12 971495602#12.26 971495602#12.77 951442813 951442812#0 -896786335#50 -896786335#49 -896786335#48 -896786335#48.15 -951354780 -951354780.15 -951354780.24 -896892981#10 -896892981#10.8 -896892981#9 -896892981#8 -896892981#8.18 -896892981#8.50 -896892981#8.78 -896892981#6 951349912#0 951349912#0.14 951349912#0.18 951349912#0.25 951349912#0.33 951349912#0.69 951349912#0.72 951349912#0.74 951349912#0.76 951349912#1 951349912#1.12 951349912#1.14 951349912#1.16 951349912#1.19 -896786335#44 -896786335#44.9 -896786335#44.71 -896786335#43 -896786335#42 -896786335#42.22 -896786335#41 -896786335#40 -896786335#39 -896786335#39.27 -896786335#37 -896786335#36 -896786335#34 -896786335#33 -896786335#32 -896786335#32.17 -896786335#31 -896786335#31.22 -896786335#30 45378649#0 45378649#0.36 45378649#1 45378649#2 45378649#2.17 -896786265#8 896786264 896786264.45 896786264.99 896786261 -896786262#1 -951354764#1 896786263#2 896786263#2.22 -896786253 -896786253.32 -896786253.95 -951358824#1 951354763#2 951354763#3 951354763#4 951995493#1 896786265#4 896786265#4.10 -951358820 -951358820.17 -951358820.20 -951358820.22 -951358820.25 -951358820.28 -951358820.45 -951358820.48 -951358820.50 -951358820.53 951358821#2 951358821#2.5 951358821#2.13 951358821#2.15 951358821#2.17 951358821#2.20 896786263#6 896786263#7 896786263#7.19 -896786249#0 -896786249#0.32 -896786249#0.71 -896786265#0 896786266#11 896786266#11.13 909024250#0 909024250#1 909024250#2 -909024244#1 -909024244#1.5 -909024244#1.34 -909024244#1.68 909024243#0 951995495 -896786335#18 -896786335#17 -896786335#17.2 -896786335#16 -896786335#16.7 -896786335#15 45378665#0 45378665#0.11 45378665#0.47 909024239#0 909024239#1 909024239#1.17 -909024237#1 -909024237#1.34 -909024237#1.71 -909024237#1.74 -909024237#1.78 -909024237#1.82 877398366#1 877398366#1.15 877398366#2 877398366#2.36 877398366#3 951995475#4 904371460#5 -877396860#3 -951975994 -896786324#1 -896786324#0 -896786324#0.19 -896786324#0.132 -896786324#0.177 951951639#0 951946803#0 951946795#1 -951946802 951951639#3 951951639#4 951946801 951946795#3 -951946800#1 951951639#7 951951639#8 951946799 951946795#6 951946795#7 951946795#9 951946795#10 951946795#11 951946795#11.34 951946795#11.40 951946795#11.45 896786337#10 896786337#10.21 -951887700#20 671756019#0 671756019#1 671756018 951961233#0 951961233#0.22 951961233#0.27 951961233#0.32 951961233#0.37 951961233#1 -951878265#2 951878263#1 951878263#1.39 951878263#1.46 951878263#1.53 951878263#1.72 951878263#1.75 951878263#2 951878263#2.2 -951878266#4 -951878266#4.37 -951878266#2 -951878266#1 -951878266#1.39 -951878266#1.47"/>
</vehicle>
<vehicle id = "veh5" type= "veh_passenger" depart="3605" >
<route edges =" 951370989 951370989.40 951370989.47 951370989.53 951370989.56 951370989.62 951370989.64 951370989.67 -902433320#1 -902433320#0 902433321#2 45342799#21 45342809#0 45342809#1 45342809#2 45342809#3 45342809#4 45342809#5 45342809#6 45342809#7 45342809#8 -44740885#9 -44740885#9.34 -45342803#4 45342821#0 45342821#1 45342821#1.9 45342809#10 45342809#10.44 45342809#11 -45342831#3 -45342831#2 -951417482#2 -951417480#1 -951417480#0 45342805#4 45342823#0 -45342833#4 -951366786 45342824#3 45342824#4 45342825#2 45342828#0 45342828#1 45342828#1.100 -45344273#6 -45344273#6.40 -45344273#6.59 -951384598#3 -951384598#2 -951404491 -951404491.16 -951404491.28 -951404491.40 -951404491.51 -951384599#0 -700249213#7 -700249213#7.47 -700249213#7.56 -700249213#7.59 -700249213#7.61 -700249213#7.65 -700249213#6 -700249213#5 -700249213#5.52 -45344292#4 45344290#2 -951370976#1 -951370975 -45344304#10 -45344304#9 -45344304#8 -45344304#8.11 -951370974#2 951370971#0 951370971#1 951370963 897252863#5 897252868#0 897252868#0.17 897252868#0.55 897252868#0.76 897252868#1 897252868#1.11 897252868#1.31 897252868#2 897252868#3 897252868#3.16 897252868#4 -897252869#2 -897252869#1 -45344315#0 -45344315#0.31 700249213#11 45342808#10 45342808#11 45342808#11.24 45342808#12 -897252871 -897252870 -45344310#2 -45344310#1 -45344310#0 -45344310#0.10 -45344310#0.18 -45344310#0.30 -45344310#0.41 -45344310#0.52 971495602#8 971495602#8.24 971495602#8.86 45340579#6 45340579#7 45340579#7.32 45340579#7.82 45340579#7.134 45340579#7.159 45340579#7.185 45340579#8 45340579#8.28 45340579#8.73 -45378643#7 -45378643#7.12 908560888#0 908560888#0.35 908560888#0.67 908560867#0 908560867#0.11 908560867#1 -951404468#1 -951404468#1.18 -951404468#1.33 -951404468#1.62 -951404468#1.64 -951404468#1.65 -951404468#1.66 -951404468#1.67 -951404468#1.69 -951404468#1.79 -951404468#1.80 -951404468#1.83 -951404468#1.85 -951404468#1.88 -951404468#1.96 -951404468#1.98 -951404468#1.99 -951404468#1.101 -951404468#1.102 -951404468#1.107 -951404468#1.112 -951404468#1.119 -951404468#1.121 -951404468#1.122 -951404468#1.124 -951404468#1.126 -951404468#1.129 -951404468#1.131 -951404468#1.133 -951404468#1.135 -951404468#1.138 -951404468#1.141 951404467#0 951404467#0.8 951404467#0.12 951404467#0.16 951404467#0.31 951404467#0.34 951404467#1 951404467#1.1 951404467#1.5 951404467#1.9 951404467#1.15 -908560887#7 -908560887#7.10 -908560887#7.18 -908560887#7.26 -908560887#7.31 -908560887#7.34 -908560887#7.37 -951435494 -951435494.8 -951435494.19 -951435494.25 -951435494.33 -951435494.43 -951435494.50 -951435494.55 -951435494.60 -951435494.65 313316104#5 313316104#5.24 313316104#5.44 313316104#5.58 -45378650#5 -45378650#5.11 45378646#0 45378646#0.20 45378646#1 -908846596#4 -45378645#0 -45378645#0.60 -45378650#3 -45378650#3.29 -908846595#2 -908846595#2.24 -908846595#1 908846594#0 908846594#1 908846594#1.37 908846596#1 45378650#1 -908846593 -908846593.73 908560901#8 908560901#8.23 908560901#8.56 -313316104#0 -313316082 -45378649#12 896786296#0 -951355298#2 -951355298#2.7 -951355298#2.9 -951355298#2.11 -951355298#2.15 -951355298#2.38 -951355298#2.43 951355292 -45378649#9 -45378649#9.7 951355297#0 951355297#1 -951355298#0 -951355298#0.4 951354759#3 951354759#4 951354759#4.40 -896786262#4 -896786262#4.31 -896786262#3 -896786262#3.9 -896786258#4 -896786258#2 -896786258#2.22 -896786256 -896786256.31 -896786256.68 -896786256.122 -896786260#4 -896786260#4.11 -896786260#3 -896786260#1 -896786260#1.5 -896786260#0 -896786260#0.52 896786257#4 909024248 909024248.50 45378665#5 45378665#5.9 45378665#7 45378665#7.25 45378665#7.48 909024255 909024255.12 909024255.40 909024255.70 -896786266#3 -951358819 -951358819.10 -951358819.14 -951358819.18 -951358819.25 -951358819.35 -896786283#4 -896786283#4.15 -896786283#4.56 951433465 876614861#4 876614861#5 876614861#6 876614861#6.60 45378665#13 45378665#13.5 45378665#14 45378665#14.10 45378665#14.32 45378665#16 45378665#17 45378665#17.10 45378665#17.29 45378665#17.54 -951346845 -951346845.45 -951346845.46 -951346845.48 -951346845.49 -951346845.51 -951346845.52 -951346845.76 -951346845.78 -951346845.80 -951346845.82 -951346845.84 -951346845.103 -951346845.133 -951346845.138 -951346845.141 -951346845.144 -951346845.148 896786295#3 896786295#3.23 -951347814#1 -951347814#1.43 -951347814#1.47 -951347814#0 -951347814#0.2 -951347814#0.5 -909024259#0 896786295#5 -896786282#4 -896786282#4.21 -896786282#4.92 -896786282#3 -896786282#3.19 -896786282#3.45 -896786282#2 -896786282#2.3 -896786282#2.7 -896786282#2.12 896786267#0 896786267#0.23 896786267#0.26 896786267#0.28 896786267#0.30 896786267#0.33 896786267#0.53 896786267#0.75 896786267#0.212 -896786269#3 -896786269#2 876614861#1 876614861#2 -909024287#3 -909024287#3.20 -896786283#2 -909024289#4 -909024289#3 -909024289#3.21 -909024289#2 -909024289#1 -909024289#1.25 -909024289#1.69 -909024289#1.74 -909024289#1.90 -909024289#1.103 -909024289#1.130 -909024289#0 -909024289#0.2 -909024289#0.5 -909024289#0.10 896786293#2 896786293#2.8 896786293#2.28 896786293#2.36 896786293#2.45 896786293#2.48 896786293#2.52 896786293#3 896786293#3.29 896786293#4 896786257#7 896786257#7.17 896786257#7.37 896786257#7.44 896786257#7.49 896786257#7.54 -45378665#1 -45378665#0 -45378665#0.39 -45378665#0.75 -896786335#14 -896786335#14.27 -896786335#13 877398366#0 877398366#0.11 -909024237#0 951983583#1 -896786335#11 -896786311#13 -896786311#13.20 -896786311#12 -896786311#12.40 -896786311#11 -896786311#11.60 -896786311#10 -896786311#9 -896786311#8 -896786311#7 -951930673#5 -951930673#4 -951930672#1 -951930672#0 -951930671#2 -951930671#2.8 -951930671#1 -951930671#0 -951930671#0.25 -951930671#0.32 -951930671#0.42 951930675 -951930673#0 896786320#3 896786320#3.27 896786321#3 896786321#3.48 896786321#3.103 -896786335#8 -896786335#8.39 -896786335#7 951976007 -951976006#1 -951976006#0 -896786315#2 -896786315#0 -877396172#1 -877396172#1.57 -877396172#0 -877396172#0.15 -896786313#2 -896786313#2.55 -951930663#1 -951930663#0 877395784#12 -951946824 -951946816#7 -951946816#6 -951946816#6.36 -951946816#6.40 -951946816#6.43 -951946816#6.46 -951946816#5 -951946816#5.8 -951946816#5.11 -951946816#5.14 -951946816#5.18 -951946816#4 951946844 877399011#1 951946810#2 -896786337#14 -896786337#14.40 -896786337#14.111 -952365020 -952365021 -951878231#2 -951951643#6 -951951643#5 -951951643#4 -951951643#3 -951951643#2 876509484#2 876509484#3 -951951650 -951951648#2 -951951648#1 -951951648#0 -951951643#0 951878263#8 951878230#4 -951891772#4 -951891772#3 -951891772#2 -951891774 951891771#2 951930613 -951878269#9 -951878269#7 -951891764#4 -951887656#2 -951887656#1 -951878272#0 -951878269#2 -951878269#1 -951878269#1.25 -951878269#1.51 -951878269#1.75 -951878269#1.92 -951887655#4 -951887655#3 951887654#1 951878272#2 951878272#4 -951887658 -951887655#0 904196454#1 904196454#1.35 904196454#2 951887661#0 951887661#1 951887661#2 951887661#3 951878266#0"/>
</vehicle>
<vehicle id = "veh6" type= "veh_passenger" depart="7210" >
<route edges =" -45342801#4 45342799#23 672813677#0 672813677#0.22 672813677#0.51 672813677#1 672813677#1.14 672813677#1.27 672813677#2 672813677#4 672813677#4.8 -903341082#0 -903341082#0.45 -45342801#2 -45342801#1 -45342801#0 45342798#2 45342809#4 45342809#5 45342809#6 -951370985#1 951441769 -45342836#0 45342818#2 45342818#3 -45342814#4 -45342814#3 -45342814#2 -45342814#1 44740902#11 44740902#12 671399046#2 671399046#2.23 671399046#3 671399046#3.56 -44740885#5 -44740885#5.33 -44740885#4 -44740885#3 -44740901#6 -44740901#5 44740896#0 44740896#1 44740896#2 44740896#3 -44740959#1 -44740959#0 44740895#3 -44740957#8 -44740957#7 -44740957#6 -44740957#5 -671399051#1 -671399051#0 44740942#2 44740942#2.58 -874839172#0 -44740943 -313316091#20 951438760#0 -672215964 672215965#1 44740922#1 44740922#2 44740922#2.25 44740922#3 44740922#5 44740922#5.74 44740922#6 44740922#7 44740930#11 44740930#12 44740930#13 44740930#14 44740963 -44740962#0 44740960#1 44740929#9 44740929#9.20 44740929#10 955813295#1 955813295#1.169 102277232#0 102277232#1 44739167#9 44739167#10 44740926#6 44740928#1 -951358805#1 -951358802 -44740927#11 -951358801 44740953#6 44740953#7 44740949#2 44739163#20 -313316091#2 -313316091#2.44 -313316091#1 -313316091#1.32 -44740920#8 -951358792 -951358792.26 -951358792.42 -951358792.53 -951358792.66 896892969#18 45340579#18 45340579#18.164 45340579#19 45340579#19.12 45340579#19.84 909019791#0 909019791#1 909019791#2 44740933#0 44740933#1 44740933#2 44740910#5 44740910#5.46 -44740932#5 -44740932#4 -44740932#3 -44740932#2 -44740934#4 -44740934#3 -44740934#3.33 -909019780#1 -909019780#0 668599376#1 668599376#2 668599376#2.6 -668599375#0 44740916#11 -971495601#6 -971495601#5 -971495601#3 -951346855#1 -951346855#1.22 -951346855#1.42 -951346855#1.57 -951346854 -951346854.30 -951346854.33 -951346854.34 -951346854.36 -951346854.39 -951346854.40 -951346854.42 -951346854.50 -951346854.52 -951346854.54 -951346854.56 -951346854.59 -951346854.61 -951346854.62 -951346854.64 -951346854.65 -951346854.67 -951346854.69 -951346854.101 908560901#22 908560901#22.77 908560901#22.89 -971495601#0 -313316086 -44739144#26 -903953334#9 -903953334#9.24 -903953334#9.50 -903953334#9.58 -903953327 -903953327.7 -903953327.18 -903953327.71 -903953326#0 -44739144#22 -44739144#21 -951346849 909778546#1 -909778547#0 -44739144#19 -44739144#19.14 -44739144#18 -877398366#21 -877398366#20 -909024264#1 -909024263 -909024263.30 909024265#1 909024265#2 909024265#2.13 952002225#1 -877396860#21 -904371477 -904371477.66 -904371478#1 -904371478#1.6 904371479#1 904371479#1.2 904371479#1.8 904371479#1.27 904371479#1.58 -904371474#3 -904371480 -904371480.19 -904371480.46 -904371480.53 -904371480.60 -904371480.68 -904371480.92 -904286388#3 -904286388#3.17 -904286388#1 -904286388#1.25 -904371473#3 904371469 904286386#6 904286386#7 671191683#3 -904286387#3 -904286387#3.46 -904286387#3.53 951973456#0 951973456#1 951973451#1 -951992361 -904371488#6 -904371488#5 -904371488#4 904371486#0 904371486#1 904371487#0 904371487#1 904371487#1.29 904286385#8 904286385#9 904286385#10 904286385#12 896786290#0 -904286381#6 904286380#0 -904286383#2 896786290#2 896786290#3 896786290#4 896786290#4.40 896786290#5 896786277#0 896786277#2 896786277#3 -909024256#0 -909024256#0.28 896786279#5 896786278#1 896786267#2 -877398366#13 671191680#15 671191680#15.58 877396033#0 876614861#0 876614861#0.13 876614861#1 -909024289#6 -909024289#6.17 -909024289#5 -909024289#4 -896786286#4 -896786286#4.15 -896786286#4.66 -896786286#3 -896786292#4 -896786292#4.15 -896786287#1 -951995479#0 -896786286#1 -896786286#1.14 -896786286#0 -896786286#0.12 877398366#9 877398366#11 877398366#11.20 896786284#1 877396860#10 -671191680#13 -671191680#11 -904286375#3 -904286375#2 -904286375#2.19 904286373#0 -951975997 -671191680#8 -671191680#6 -896786326#1 -896786327#1 -896786327#1.48 -896786327#1.55 -896786327#1.60 -896786327#1.64 -896786327#1.68 -896786327#1.74 -896786327#1.124 -896786327#1.170 -896786327#1.205 -896786327#1.211 -896786327#0 -877395784#21 -877395784#21.14 -951951638#10 -951951638#10.18 -951951638#9 951973426#2 -952002224#6 -952002224#5 -952002224#5.5 -952002224#4 -952002224#4.27 951946798#0 951946798#1 951951639#10 951951639#11 951951639#13 951951639#14 952000397 -951951638#0 896786337#5 896786337#5.11 896786337#6 896786337#7 896786337#8 896786337#8.8 -951887683 -951887684 -951887682#6 -951887682#5 -951887682#4 -951887682#3 -951887682#2 -951887682#2.37 -951887682#1 -951887682#1.2 -951887682#1.5 -951887682#0 -951887700#14 -951961240#3 -951961240#1 -951961245 951891772#0 -951891773 -951891771#0"/>
</vehicle>
<vehicle id = "veh7" type= "veh_passenger" depart="7210" >
<route edges =" 45342801#5 45342801#5.32 902433317#3 902433317#4 902433317#6 902433317#7 902433317#8 902433317#8.29 902433317#9 951368594#0 951368594#1 -951369743#1 -951369743#1.33 -951369743#1.39 951421966 -951366780#1 -951366780#1.2 -951366780#1.41 -951366780#0 951369747#1 951366781#2 951366781#2.22 951366779#1 45342812#1 45342811#2 45342811#2.66 -45344273#22 -45344273#22.6 -45344273#22.18 -45344273#22.35 -45344273#21 -45344273#21.28 -45344273#19 45344322#0 -951404485 -45344321#0 -45344273#17 -45344273#17.20 -45344273#17.31 -951404487 -951404487.23 -951404487.30 -951404487.34 -951404487.41 -951404487.54 -951404487.65 -951404487.81 -951404487.106 -951404487.117 -951404487.125 -951404487.130 -951404487.140 -951404487.150 -951404487.157 897252876#8 897252876#9 45344324#0 45344329#3 45344329#4 45344333#0 45344333#1 45344333#2 -45344331#1 -45344331#0 45344326#3 897172091#8 897172091#9 -950400190 -45344335#2 699875131#2 -950400194#2 -950400194#1 -950400194#0 -950400195#1 -950400195#1.7 -950400195#1.14 -950400195#1.22 -950400195#1.28 -950400195#1.34 -950400195#1.42 -950400195#1.48 -950400195#1.59 -950400195#1.74 -950400195#1.82 -950400195#0 700254525#6 700254525#8 700254525#9 700254525#11 700254525#12 700254525#12.12 950235692#0 -950235694#2 -950235694#1 -950235694#0 -950235700#0 -45344336#4 45344272#3 45344272#3.108 45344272#3.157 45344272#3.171 45344272#4 950233988#0 950233988#1 950233988#1.76 950233988#2 950233988#2.43 950233988#2.55 -700278833#3 700278832#0 700278832#0.21 700278832#1 -950392123#2 -950392123#2.17 -950392123#2.22 -950392123#2.28 -950390889#3 -950390889#3.20 -950390889#3.34 -950390889#3.45 -950390889#1 -950390889#1.12 -950390889#1.34 -950390889#0 -950390889#0.4 -950390889#0.19 950390893#3 950241224#2 950241224#3 700278832#5 700278832#5.53 45344280#12 45344280#13 950238193#0 950238193#1 950238193#2 -45344336#0 45344284#3 -950238192#4 -950238192#3 950241233#2 950394093#0 950394093#2 950394093#2.2 950241869#4 950238192#1 950238192#1.16 -950392117#1 -950392117#0 -950392117#0.22 950241230#0 -950394089 -950394089.15 -950394089.18 -950394089.21 -950241229#2 950392116#1 -45344280#7 950241224#0 950241224#0.21 950241224#0.25 950241224#0.29 950241224#0.34 950241224#0.39 950241224#0.43 950241224#0.53 -950390890 -950390890.10 -950390890.15 -950390890.19 -950390890.22 950241866#0 950241866#1 950241866#1.32 -950394091#1 -950241868#1 -950241868#1.8 -950241868#1.33 950394090#0 950394090#1 -950241865#1 -950241865#0 -45344282#5 -45344282#5.52 -45344282#5.87 -45344282#4 45344284#7 45344284#7.45 45344284#7.106 950238188#0 950238186#0 -950241847#3 45344284#9 45344284#10 950241846#0 950241846#1 950241846#1.10 950241846#2 -45344285#1 -45344285#0 45344271#7 45344271#7.34 950235733#0 950235732#2 950235732#3 950641811#0 950641811#0.21 950641811#0.28 950641811#1 950641811#1.3 950641811#1.11 950641811#1.19 950641812#2 950641812#3 950641812#4 -950641816#8 950235729#1 950235729#2 950235729#3 950235729#4 950732877 950732877.20 950732877.23 950732877.26 950732877.34 950732877.37 950732877.40 -950872165#0 45344285#7 45344285#7.32 45344285#7.36 45344285#7.39 45344285#7.44 45344285#8 -951077738 951077740#2 951077739#1 951077739#1.17 -951141446 -951141446.24 -951141446.29 -951141446.35 -951141446.41 -951141446.45 -951141446.50 950241823#1 950241823#1.18 950241823#3 950241823#4 950241823#5 -950241818#2 950929121#0 950929121#0.14 950929121#0.18 950929121#0.21 950929121#0.26 950241819#0 951014869 -950241821#12 -950241821#11 -950241821#11.8 -950241821#11.12 -951043907#1 -951043907#1.5 -951043907#1.10 -951043907#1.17 -951043907#1.21 -951043907#1.25 -951043906#1 -951043906#1.11 -951043906#1.14 -951043906#1.17 -951043906#1.19 -950241819#4 -950241819#3 -950241821#9 -950241821#8 -950241821#7 -950241821#7.35 -950241821#6 -950241821#6.63 -950241831#1 -950241818#6 -950241818#6.21 -950241818#5 -950241818#5.20 -950241818#4 -950241825#0 950929127#2 950929127#3 950929127#3.14 950929127#4 950929127#4.15 950929127#5 950929127#6 950929127#7 950929127#8 950929127#9 -950241837#1 -950241837#1.71 -950241837#1.96 -950241837#1.99 -950241837#1.102 -950241837#1.105 -950241837#1.108 -950241837#0 -950241834#1 950241821#2 950241832#2 950241832#2.33 950241832#3 -951014858#3 -951014858#3.18 -951014858#3.23 -951014858#3.27 -951014858#3.30 -951014858#3.35 951014861#0 951014861#1 -950241831#3 951014859 951014859.40 951014859.44 951014859.47 951014859.50 951014859.58 951014859.60 951014859.62 951014859.64 950241825#4 950241825#5 950241825#5.8 -950243393#5 -950243393#5.41 -950243393#4 -950243393#4.70 -950243393#4.113 -950243393#3 -950243393#3.21 45344271#1 45344271#1.39 45344271#2 45344271#2.26 45344271#3 45344271#3.47 45344271#4 -902433322#2 -950241847#1 -950241859#1 -951043905#1 -951043905#1.58 -951043905#1.61 -951043905#1.65 -951043905#1.69 -951043905#0 950241861#2 950241848#3 950241855#0 950241855#1 -950241851#1 -950241851#0 950241857#4 950243393#1 950243393#1.48 950243393#1.98 950241855#4 897252878#5 897252878#5.15 897252878#6 897252878#6.10 897252878#7 -950241202#5 -950241202#3 -950241202#3.7 -950241202#2 -950241202#2.5 -950241202#2.10 -950241202#2.15 -950241202#1 -950241202#1.30 -950397766 950397767#1 -897252879#4 -897252879#4.26 -897252879#3 -897252879#2 -897252879#1 -897252879#1.25 -897252879#0 -897172107 -897172108#14 -897172108#13 -897172108#13.42 -897172108#13.49 -897172108#13.64 -897172108#13.76 -950239901#3 -950239901#2 950239900#0 950239883#0 950239883#0.10 950239883#0.21 950239883#0.30 950239883#0.38 950239883#0.48 950239883#1 950239883#1.39 950239883#1.63 950239883#1.82 950239883#1.118 951132944#3 950309194 950309195 950309193 897252879#8 897252879#8.3 897252879#8.29 -950396019 950396018#0 950397771 950397771.35 950397771.39 950397771.42 950397771.45 950396021#2 950396021#2.14 950396021#2.19 950396021#2.24 950396021#2.28 950396021#2.32 950396018#3 -897252878#3 -897252878#2 -897252878#1 950396022#0 950396022#1 950241209#2 950241209#2.6 950241209#2.13 950241209#2.18 950241209#2.32 950241209#2.44 950241209#2.66 950241209#2.89 950243392#1 -950243391#0 -950243391#0.66 -950243391#0.74 -950243391#0.79 -950243391#0.86 -950243391#0.116 -950241209#4 -950241209#4.34 -950396025 -897252877#0 -897252877#0.24 -950241220#4 -950241220#3 -950241220#2 -950241220#1 -950389244#1 -950389244#1.19 -950389244#1.34 -950389244#0 -950389244#0.11 -897252879#13 -897172104 -45344275 -45343180#9 -897172106#20 -897172106#20.69 950287956#0 950287956#0.15 950287956#0.28 950287956#0.70 950287956#0.74 950287956#0.77 950287956#0.80 950287956#0.84 897615338#1 897615342#3 950287958#0 -950287959#2 -950287959#1 950239877#0 950239877#1 950239877#2 950239877#2.44 950239877#2.65 950293293 897615338#6 897615334#8 897615334#8.25 897615334#9 897615334#9.14 45343180#3 45343180#3.13 45343180#4 45343180#4.40 -897615339#3 -897615339#2 950239879#3 950287964#1 950287964#2 897615340#1 -897615339#0 -671176477#8 -671176477#8.26 -671176477#8.54 -671176477#8.73 -671176475#7 -671176475#6 -671176475#5 -671176475#3 -671176475#3.2 -671176475#3.34 -671176475#3.40 -671176475#1 -671176475#0 -671176477#6 -671176477#6.25 -950239856#3 -950239856#2 -950239856#2.35 -950239856#1 -950239856#1.19 -950239856#0 -950239861#4 -950239861#4.75 -950239861#4.114 -950239861#4.121 -950239861#4.126 -950239861#4.132 950241214#0 950241217 950241217.46 950241217.50 950241217.54 950241217.58 950241218 950241218.22 -671176477#4 -671176477#4.46 -671176477#3 -671176477#3.21 950239863#0 950239863#0.34 -950239865 -950239865.53 -950239865.57 -950239865.62 -671176477#1 -671176478#0 -671176478#0.38 -671176478#0.42 -671176478#0.45 -671176478#0.50 -671176478#0.54 -897172102 -897172103 -671176472 897252879#17 897252879#18 897252879#18.162 897252879#19 897252879#19.29 897252879#20 897252879#21 897252879#21.85 897252879#22 897252879#23 896892972 896892973 896892973.27 896892973.31 -896786335#50 -896786335#49 -896786335#48 -896786335#48.15 -896786335#47 -896786335#46 -896786335#44 -896786335#44.9 -896786335#44.71 -896786335#43 -896786335#42 -896786335#42.22 -896786335#41 -896786335#40 -896786335#39 -896786335#39.27 -908869251 -908869251.5 -908869251.7 -908869251.10 -908869251.12 -908869251.30 -908869251.35 -908869251.40 -908869251.44 -908869251.48 -908869251.66 -908869251.70 -908869251.73 -908869251.76 -908869251.78 896786248#1 896786248#1.30 896786248#1.43 -951349917#1 -951349917#1.14 -951349917#1.29 -951349917#1.41 -951349917#1.59 -951349918 876614662#9 876614662#9.52 -951354773#3 -951354773#3.20 -951354773#3.23 -951354773#3.26 -951354773#3.28 -951354773#3.30 -951354773#3.32 -951354773#3.34 -951354773#3.38 -951354773#3.40 -951354773#3.43 -951354773#3.45 -951354771#1 -951355290 -951355290.28 -951355290.30 -951355290.31 -951355290.32 -951355290.33 -896893028#3 -896893028#3.26 -896893028#1 -896893028#1.14 896893014#0 896893014#0.49 896893015#1 896893015#1.26 -896893016#1 896893017#0 896893017#1 -896786335#28 -896786335#27 -896786335#27.19 951358823 951358823.10 951358823.15 951358823.20 951358823.26 951354763#3 951354763#4 -951995493#0 -951995491#1 -951995491#0 896786266#13 896786266#13.14 -896893013#7 -896893013#7.29 -896893013#7.87 -896893013#6 -896893013#6.15 -896893013#5 -896893013#5.11 -896893013#5.13 896893005#0 896893005#0.7 896893005#0.25 896893005#0.69 -896786307#9 -896786307#9.12 -896786307#9.63 -896786307#9.67 -896786307#9.69 896893001 896893001.47 896893001.102 896786304#0 896786304#0.56 -877388976#1 -877388976#1.14 -877388976#1.34 -877388976#1.74 -896786308#2 -896786308#2.11 -896786305#0 -896786305#0.72 -896786305#0.81 -896786309#0 896786304#2 896786300#0 896786300#0.23 896893013#0 896893013#0.10 896893013#0.59 -896893009 -896893009.79 -896893012#4 -896893012#3 -896893012#2 -896893012#2.9 896786300#3 896786300#3.17 45378665#0 45378665#0.11 45378665#0.47 909024239#0 909024239#1 909024239#1.17 909024239#2 909024239#2.40 877398366#3 951995475#4 904371460#5 -877396860#3 -951975994 -896786324#1 -896786324#0 -896786324#0.19 -896786324#0.132 -896786324#0.177 -877395784#19 -951946816#15 -951946816#14 -951946803#1 -951946803#1.55 -951946803#1.59 -951946803#1.61 -951946803#1.64 -951946803#0 951951639#1 951951639#3 951951639#4 951946801 951946795#3 -951946800#1 951951639#7 951951639#8 951951639#9 951946798#2 951946795#7 951946795#9 -951946796#1 951946804 951946804.28 951946804.31 951946804.34 951946804.37 951946795#11 951946795#11.34 951946795#11.40 951946795#11.45 896786337#10 896786337#10.21 -951887700#20 671756019#0 -951961251#1 -951961251#0 951878263#0 951878263#0.8 951878263#0.15 -951878265#1 -951878266#5 -951878266#5.22 -951878266#5.29 -951878266#5.37 -951878266#4 -951878266#4.37 -951878266#2 -951878266#1 -951878266#1.39 -951878266#1.47"/>
</vehicle>
<vehicle id = "veh8" type= "veh_passenger" depart="7210" >
<route edges =" 951370989 951370989.40 951370989.47 951370989.53 951370989.56 951370989.62 951370989.64 951370989.67 -902433320#1 -902433320#0 902433321#2 -45342799#20 -45342797#4 -45342797#3 -951368601#1 -951368602#1 -951368602#0 -45342835#0 -45342797#0 -45342834#1 -45342834#0 44740902#8 44740902#9 44740902#9.47 -951370984#2 -951370984#1 -951370984#0 -45342803#6 45342814#4 -45342818#3 951370985#0 951370985#1 45342839#0 -45342838#2 -671416442#2 -671416442#1 -671416441 -671416443#0 671416444#2 45342810#2 45342810#3 45342810#4 45342810#4.21 45342810#5 -973399407#2 -973399407#1 951366784 44740885#15 44740885#15.31 -45342830#0 45342810#8 45342810#8.39 45342810#10 45342810#10.5 -44740885#12 -44740885#12.2 -44740885#12.5 -44740885#11 -44740885#11.4 -44740885#11.8 -44740885#10 45342809#9 45342809#10 45342809#10.44 45342809#11 45342809#12 45342809#14 45342809#15 45342809#16 45342833#0 45342833#1 45342833#2 45342833#3 45342833#4 45342823#1 45342823#2 45342828#1 45342828#1.100 -951384596#1 -951384596#1.24 -951384596#1.31 -951384596#1.36 -951384596#1.46 -951384596#1.54 -951384596#1.60 -951384596#1.72 -951384596#1.107 -951417467 -951417467.14 -951417467.15 -951417467.17 -951417467.18 -951417467.21 -951417467.23 -951417467.24 -951417467.25 -951404491 -951404491.16 -951404491.28 -951404491.40 -951404491.51 -951384599#0 -897252868#5 -897252869#2 897252861 897252860#1 -45344315#1 -45344315#1.25 -45344315#0 -45344315#0.31 700249213#11 45342808#10 45342808#11 45342808#11.24 45342808#12 -897252871 -897252870 -45344310#2 -45344310#1 951404484#0 951404484#0.58 951404484#0.86 951404484#0.91 951404484#0.94 -951404476 -951404476.16 -951404476.32 -951404476.50 -951404476.59 -951404476.68 -951404476.84 -951404476.93 -951404476.101 -951404476.106 -951404476.113 971495602#7 971495602#7.32 971495602#7.56 971495602#8 971495602#8.24 971495602#8.86 -313316104#6 -45378650#5 -45378650#5.11 45378646#0 45378646#0.20 45378646#1 -908846596#4 45378645#1 45378645#1.23 45378645#1.76 -45378647#2 -45378647#2.16 -45378647#2.30 908846595#0 908846595#0.61 908846594#0 45378650#0 45378650#0.11 -908846596#1 -908846596#0 -908846596#0.31 908560901#7 908560901#8 908560901#8.23 908560901#8.56 -313316104#0 -313316082 -45378649#12 896786247#0 896786247#0.38 908869233 -908869244#0 -908869250#1 -908869250#0 -908869250#0.11 -908869250#0.41 -45378649#10 -45378649#10.20 -45378649#9 -45378649#9.7 -45378649#7 -45378649#7.4 951354759#0 951354759#0.23 951354759#0.27 951354759#0.32 951354759#0.43 951354759#1 951354759#1.10 951354759#3 951354759#4 951354759#4.40 896786262#5 896786262#6 896786262#6.9 896786296#2 896786296#2.35 -896786254#1 -896786254#1.26 951355294#1 951355294#1.19 951355294#1.22 951355294#1.23 951355294#1.24 951355294#1.25 951355294#1.27 951355294#1.28 951355294#1.31 951355294#1.41 951355294#1.42 951355294#1.43 951355294#1.44 951355294#1.45 951355294#1.47 896786257#0 896786257#0.74 896786257#0.128 896786257#0.138 -896786260#3 -896786260#1 -896786260#1.5 -896786260#0 -896786260#0.52 896786257#4 909024248 909024248.50 -45378665#3 -45378665#3.29 -45378665#3.50 -45378665#2 -45378665#2.36 -45378665#1 -45378665#0 -45378665#0.39 -45378665#0.75 -896786335#14 -896786335#14.27 -896786335#13 -951983587#9 896786303#2 896786303#2.23 896786303#3 896786301 896786301.58 896786303#6 896786303#6.29 896786302#1 896786304#6 896786304#7 896786304#7.11 896786304#8 896786304#8.15 896786304#9 896786304#9.20 896786311#11 896786311#11.62 -951976011#1 951976010#1 -896786322 -896786322.14 -896786322.21 -896786323#1 896786325#4 896786325#4.12 896786335#6 951976007 -951976006#1 -951976006#0 -896786315#2 -896786316#3 -896786316#2 -896786316#1 -896786316#1.33 -896786314 -951930663#1 -951930663#0 877395784#12 -951946824 951946816#9 951946816#10 951946817#1 951946817#2 -951951641 951946833#3 -951946817#5 -951951636 951951635#2 951946818#2 -951946819#1 -951946819#0 -951946816#5 -951946816#5.8 -951946816#5.11 -951946816#5.14 -951946816#5.18 -951946816#4 -951946816#2 951946827 951946827.47 951946827.51 951946827.55 951946827.59 951946815#3 951946828 -951946787#4 -951946787#3 -951946787#2 -951946814#2 -951946814#0 -951946812#1 -951946813 951946810#1 951946810#2 -896786337#14 -896786337#14.40 -896786337#14.111 -952365020 -952365021 -951878231#2 -951878231#1 -951878231#1.26 -951878231#0 951951645 -951951643#3 -951951646 -951951642#2 -876509484#2 -951951643#1 -951951643#0 -951878263#7 -951951649 951951648#1 -951951642#0 -951878263#5 -951878269#15 -951891772#2 -951891774 951891771#2 951878270#2 951878270#3 951878270#4 -951891764#2 -951887654#3 -951891765#1 -951887656#1 951878272#1 951878272#2 -951887657 -951887655#1 951887658 951878272#5 904196454#2 904196454#4 951887664#2 951887663#1 951887663#2 -951887661#2 951887662 951887660#3 951887660#5 951887659#1 -951891763#1 -951891763#0 -951891764#0 -951887660#0 877401978#1 951878266#0"/>
</vehicle>
<vehicle id = "veh9" type= "veh_passenger" depart="10815" >
<route edges =" 951370989 951370989.40 951370989.47 951370989.53 951370989.56 951370989.62 951370989.64 951370989.67 -902433320#1 -902433320#0 902433321#2 -45342799#20 -45342797#4 -951368600#1 -951368603#1 -951368603#0 45342835#2 45342809#2 45342809#3 45342798#3 45342798#4 45342818#0 -45342817#2 -45342817#1 45342816#0 -951370984#0 -45342803#6 -45342803#5 -44740885#8 -44740885#7 -44740885#6 -44740885#5 -44740885#5.33 -44740885#4 671399058#0 671399058#1 671399058#2 -44740901#3 44740957#6 44740957#7 44740957#8 974189220#3 951417475#1 -671399049#1 -671399049#0 -671399051#0 -44740942#1 -44740942#0 974189220#5 902433296 44740967#0 44740967#1 44740967#2 44740967#3 44740967#4 -44740922#3 44740953#0 -951438764 -951438764.47 -951438764.119 -313316091#14 -313316091#14.20 -671761561 -45378689#4 -45378690#1 -45378691 -45378682#0 -45378682#0.30 -44740946#1 -44740946#0 44740945#1 44739167#14 44740949#0 44740949#1 44740949#2 -44740919#1 -44740919#0 44740920#8 -313316091#0 -313316091#0.27 -313316091#0.72 -313316091#0.80 45340579#18 45340579#18.164 45340579#19 45340579#19.12 45340579#19.84 909019791#0 909019791#1 -909019788 909019789#2 -909019790#0 -909019790#0.12 -44740934#4 668599377#0 668599377#0.33 668599377#1 668599377#1.37 44740916#9 44740916#9.64 -909019783 -909019783.98 -971495601#3 -951346855#1 -951346855#1.22 -951346855#1.42 -951346855#1.57 -951346855#0 -951346855#0.7 -951346855#0.23 -908560900#2 -908560900#1 -908560901#21 -908560901#21.18 -908560901#21.74 -908560901#20 -908560901#20.10 -908560901#20.61 -908560901#20.115 -908560901#19 -908560901#19.77 -908560901#19.104 -896786299#0 -896786298 -45378665#19 896786295#0 896786295#0.19 951347815 951347815.27 951347815.37 951347815.47 951347815.52 951347815.56 951347815.58 951347815.61 951347815.65 896786296#13 896786296#13.14 896786296#14 896786296#14.11 -909024259#2 -909024259#2.7 -909024259#2.19 -909024259#2.45 -909024259#2.64 -909024259#1 -909024259#1.12 -909024259#0 896786295#5 896786295#6 896786295#6.12 909024260 909024260.21 909024260.64 909024260.121 951346848#1 896786296#16 896786296#17 896786296#17.29 896786296#17.96 896786296#17.102 896786296#18 896786296#18.4 896786296#18.17 -44739144#24 903953326#0 903953326#1 -903953325#3 -903953325#2 -903953325#2.18 -909778547#2 -909778547#0 44739144#20 44739144#21 -896786294#12 -896786294#12.19 -896786294#12.25 -896786294#12.30 -896786294#12.36 -896786294#12.41 -896786294#11 -896786294#11.13 -896786294#10 -896786294#8 -909024279#5 -909024279#5.21 -909024280#1 -909024280#1.18 -909024280#0 -896786269#9 -896786269#7 896786275#1 896786275#1.7 896786279#0 896786279#0.44 896786272#0 896786272#1 -896786281#2 -896786281#1 -896786280#0 -896786280#0.15 -896786280#0.43 896786273#1 896786273#2 896786273#2.36 896786273#3 896786273#3.22 896786279#2 896786279#2.21 896786269#5 896786268#0 896786268#1 896786268#2 896786268#2.6 896786268#3 896786295#13 -896786294#5 -896786294#5.6 -896786294#5.10 -896786294#5.13 -896786294#5.16 -896786294#5.19 -896786294#5.22 -896786294#4 -896786294#3 -896786294#3.26 -896786294#2 -896786294#2.7 -702673217#5 909024267 909024267.76 -909024268#0 -909024268#0.45 -702673217#3 -896786289#2 877398366#19 877398366#20 877398366#21 671752228#0 -671960103#1 -951346850 -44739144#15 -44739144#13 -877396860#22 -877396860#21 -877396860#20 -877396860#20.1 -904371479#3 -904371474#3 -904371474#2 -904371472#1 -904371472#1.50 904371471 904371473#3 -904286388#0 -904286386#6 -904286385#15 -904286385#15.42 904371468 904371468.35 904371468.46 904371468.50 904371468.53 904371468.59 904371488#2 904371488#2.33 904371488#2.41 904371488#2.44 904371486#0 951992348 -904286385#8 -904371487#1 -904371487#1.16 -904371489#2 951973468#0 951973468#1 951973468#2 951973468#2.24 951973468#2.27 951973468#2.29 951973468#2.32 -904371490#0 -951973470#1 -951973470#1.3 -951973470#1.6 -951973470#1.10 -951973471#4 -951973471#3 -951973471#2 -951973471#2.11 -951973471#2.14 -951973471#2.17 -951973471#2.20 -904371456#1 -904371456#0 -904371456#0.17 -671191680#0 -671191680#0.38 -671191680#0.44 -671191680#0.48 -671191680#0.53 -671191680#0.58 -671191680#0.63 -671191680#0.76 -896786327#0 877395784#22 877395784#22.56 877395784#23 -952002224#7 -952002224#7.17 -952002224#7.71 -951973426#2 951951638#9 951973434#1 951951639#3 951951639#4 -951973432#1 -951951638#7 -951951638#5 -951951638#4 -951951638#3 952000398 951951639#13 951951639#14 951951639#15 896786337#6 896786337#7 896786337#8 896786337#8.8 896786337#10 896786337#10.21 -951887700#20 -951887700#19 -951887686#1 -951887688#2 -951887688#1 -951887688#0 951887687#1 951887687#1.5 951887687#1.11 -951887700#15 -951961243 -951961242#0 -951961240#1 -951961245 951891772#0 951891772#1 -951891774 -951891771#1 -951891771#0"/>
</vehicle>
<vehicle id = "veh10" type= "veh_passenger" depart="10815" >
<route edges =" 45342801#5 45342801#5.32 902433317#3 951421968#0 951421968#1 951421968#1.20 -951381446#1 -951381446#0 951368595#1 951368595#1.17 951368595#1.34 902433317#8 902433317#8.29 902433317#9 951368594#0 951368594#1 951368594#2 972507120#3 -951369746#4 -951369746#4.24 -951369746#4.27 -951369746#4.29 951369745#0 -951381440 -951369737#0 -951369737#0.5 -951369737#0.11 -951369746#1 -951369746#1.3 -951369746#1.9 -951369746#1.18 -951369746#1.26 -951369746#1.35 -951369741#4 -951369741#2 -951369741#2.8 -951369741#2.11 -951369741#2.13 -951369741#2.16 -951369741#2.19 -951369741#2.22 -951369741#1 -951369741#1.20 -951369741#1.25 -951369741#1.30 -45344273#26 897252876#0 897252876#0.16 897252876#0.57 897252876#1 897252876#1.54 -45344336#9 -45344336#9.10 -45344336#9.61 -45344336#9.126 -45344336#9.147 -950455054 -45344320#5 -45344320#5.17 -45344320#4 -45344331#4 45344327#1 903341090 45344335#5 45344335#7 45344335#8 -45344336#7 -45344336#7.6 -700254525#12 -700254525#12.32 -700254525#11 -700254525#9 -699875131#4 -950400192#1 -950400192#0 950400193#1 950400194#1 950235689#2 45344335#1 -699875131#1 -699875131#0 -897172091#8 -897172091#6 -951404496 -951404496.25 -951404496.29 -951404496.31 -951404496.34 -951404496.36 -897252883#0 -897252883#0.7 -897172091#1 -897172091#0 -45344294#6 -45344294#6.9 -45344294#6.25 -45344294#5 -45344294#5.7 -45344291#4 -45344291#4.36 -951370958 -45344288#0 -45344288#0.29 -45344294#3 897252857 -897252858#1 -897252858#0 -897252850#4 -951370961#1 -951370961#0 -897252852#5 -951370962 -951370962.12 -951370962.22 -951370962.34 -951370962.43 -951370962.49 -951370962.56 45344304#3 45344304#3.13 -45344286#12 -45344299 -45344299.40 -45344299.79 -45344299.80 -45344299.82 -45344299.84 -45344299.86 -45344299.89 -45344299.97 -45344299.99 -45344299.101 -45344299.106 -896892971#1 -896892971#0 -896892971#0.14 -896892971#0.28 -896892971#0.54 -896892971#0.88 -45344286#8 -951384608#1 -951384608#1.59 -951384608#1.63 -951384608#1.67 -951384608#1.69 -951384608#1.73 -951384608#0 -951384608#0.43 -951384608#0.47 -951384608#0.50 -951384608#0.52 -702632123#1 -702632123#1.4 -702632123#0 45344272#13 45344272#13.4 45344272#13.35 45344298 896892974 971495602#11 971495602#12 971495602#12.26 971495602#12.77 951442813 951442812#0 -896786335#50 -896786335#49 -896786247#9 -896786247#9.8 -896786247#9.17 -896786247#9.75 -896786247#9.157 -896786247#8 -908869236 -908869236.10 -908869236.25 -908869236.28 -908869236.31 -908869236.34 -908869236.36 -908869236.38 -908869236.41 -908869236.82 -908869236.85 -908869236.89 -908869236.92 -908869236.95 -908869236.97 -908869236.100 -896786335#43 -896786335#42 -896786335#42.22 896892983#0 896892983#0.10 896892983#1 896892983#1.19 -951421976 -896892982#1 -951349921#5 -951349921#5.15 -951349921#5.17 -951349921#5.20 -951349921#5.23 -951349921#5.25 -951349921#5.32 -951349921#5.34 -951349921#5.37 -951349921#5.39 -951349921#5.42 951349920 951349920.8 951349920.12 951349920.15 951349920.20 951349920.60 951349920.65 951349920.69 951349920.73 951349920.77 -896786335#37 -896786335#36 -896786335#34 -908869252#3 -908869252#3.7 -908869252#3.13 -908869252#3.35 -908869252#3.57 -908869252#3.88 -908869252#3.90 -908869252#3.94 -908869252#1 -908869252#0 -908869252#0.17 -896786335#30 -896893028#5 951354771#0 -951355290 -951355290.28 -951355290.30 -951355290.31 -951355290.32 -951355290.33 -896893028#3 -896893028#3.26 896893016#0 896893016#1 896893015#2 896893015#3 -896893018#0 877388728#14 -896786335#24 -896786335#23 -896786335#23.44 -896786335#22 -896786335#21 -896786335#21.41 -896893011#1 -896893012#6 -896893012#6.12 -896893012#5 -896893012#5.11 -896893012#4 -896893007#1 -896893007#1.18 -896893008#1 -896893008#0 896786300#2 896786300#2.40 896786300#2.70 -896893012#1 -896893012#0 -896893012#0.11 896786303#5 896786303#5.27 896786303#5.100 896786303#5.124 896786303#6 896786303#6.29 896786302#1 951983592#0 951983592#0.146 951983592#0.152 951983592#0.157 951983620#0 951983619 951983619.46 951983619.50 951983619.52 951983619.56 -951983616#0 -951983616#0.12 -951983616#0.15 -951983616#0.18 -951983587#3 -951983587#3.2 -951983587#2 -951983587#1 -951983587#0 -951983587#0.39 -951983587#0.45 -951983587#0.51 -951983587#0.56 -896786311#8 -896786311#7 -896786311#6 -896786311#6.24 951983602 -951930672#0 -951930671#2 -951930671#2.8 951930676 951930676.46 951930676.49 951930676.51 951930676.55 -951930673#2 -951930673#2.6 -951930673#1 -951930675 -877396172#3 951976013#0 951930665#0 951930665#1 951930665#2 951930664#4 951930664#5 896786316#2 896786317#0 896786317#1 896786317#1.17 -896786319#4 896786318 896786318.40 -896786319#0 -896786319#0.11 -896786335#4 -896786335#4.18 -896786335#3 -896786335#3.10 -896786335#2 -896786335#1 -896786335#1.14 -896786335#0 877395784#17 877395784#17.13 877395784#17.29 -951946816#15 -951946816#14 -951946803#1 -951946803#1.55 -951946803#1.59 -951946803#1.61 -951946803#1.64 951946795#1 951946795#2 951946795#3 -951946800#1 951951639#7 951951639#8 951946799 951946795#6 951946795#7 951946795#9 951946795#10 951946795#11 951946795#11.34 951946795#11.40 951946795#11.45 -951887683 -951887684 -951887682#6 -951887682#5 951887686#0 951887686#1 -671756019#4 -671756019#3 951961253 951961253.63 951961253.68 951961253.73 951961233#1 -951878265#2 951878263#1 951878263#1.39 951878263#1.46 951878263#1.53 951878263#1.72 951878263#1.75 951878263#2 951878263#2.2 -951878266#4 -951878266#4.37 -951878266#2 -951878266#1 -951878266#1.39 -951878266#1.47"/>
</vehicle>
<vehicle id = "veh11" type= "veh_passenger" depart="10815" >
<route edges =" -45342801#4 45342799#23 951370988 951370988.6 951370988.11 951370988.16 902433317#6 -951368597 45342799#26 45342799#27 45342799#27.15 45342799#27.20 45342799#27.25 45342799#27.36 972507120#0 972507120#2 45342812#0 45342812#1 45342811#2 45342811#2.66 45344273#23 45344273#23.11 45344273#24 -897252873#2 951379889 951379889.24 951379889.29 951379889.37 951379889.42 951379889.48 -951379890#0 -951379890#0.11 -951379890#0.26 -951379890#0.32 -951379890#0.35 -951379890#0.37 -951379890#0.41 -951379890#0.82 -951379890#0.84 -951379890#0.86 -951379890#0.88 -951379890#0.89 -951379890#0.91 -951379890#0.93 45344320#1 897252876#5 897252876#5.34 -45344322#2 -45344322#1 -45344322#0 -45344273#18 -45344273#18.17 -45344273#17 -45344273#17.20 -45344273#17.31 -45344273#16 -45344273#16.5 -45344273#16.30 902433295#0 902433295#0.35 -951370982#1 -951370982#0 -45344293#1 -45344293#1.78 -45344293#0 -45344273#13 -45344273#12 -45344273#11 -45344273#10 -45344273#10.42 -45344273#9 -45344273#8 -45344273#8.10 -45344273#7 -45344273#7.22 -45344273#6 -45344273#6.40 -45344273#6.59 -45344273#5 -45344273#5.6 -45344273#5.15 -45344273#4 -45344273#4.8 -45344273#4.37 -45344273#3 -45344273#3.6 -45344273#3.14 -45344273#3.31 -45344273#3.48 -45344273#2 -45344273#2.6 -45344273#2.24 -45344273#1 -45344273#1.7 -45344273#0 -897252881 -45378637#10 -45378637#9 -951404484#10 -951404483#1 -951404474#1 951404473 -951404484#6 -951404484#5 -951404484#4 -951404484#4.8 -951404484#4.11 -951404484#4.13 -951404484#4.15 -951404484#3 -951404484#3.5 -951404484#3.9 -951404484#3.14 -951404484#3.25 -951404484#3.32 -951404484#2 -951404484#2.19 -951404484#2.23 -951404484#2.26 -951404484#2.29 -951404484#0 -951404484#0.3 -951404484#0.6 -951404484#0.11 -951404484#0.38 -45344310#0 -45344310#0.10 -45344310#0.18 -45344310#0.30 -45344310#0.41 -45344310#0.52 971495602#8 971495602#8.24 971495602#8.86 45340579#6 -908560887#8 -908560887#8.9 -908560887#8.22 -908560887#8.29 -908560887#8.34 -908560887#8.39 -908560887#8.43 -908560887#8.49 -908560887#8.57 -908560887#8.62 -908560887#8.67 -908560887#8.71 -951404467#1 -951404467#1.22 -951404467#1.27 -951404467#1.32 -951404467#1.35 -951435496#1 -951435496#1.16 -951435496#1.17 -951435496#1.18 -951435496#1.19 -951435496#1.20 -951435496#1.22 -951435496#1.27 -951435496#0 -951435494 -951435494.8 -951435494.19 -951435494.25 -951435494.33 -951435494.43 -951435494.50 -951435494.55 -951435494.60 -951435494.65 -313316104#4 -313316104#4.4 -313316104#4.18 -313316104#4.31 -313316104#4.41 -313316104#4.56 -313316104#3 -951347804#2 -951347804#2.16 -951347804#2.19 -951347804#2.23 -951347804#2.26 -951347804#2.30 -951347804#2.33 -951347804#2.35 -951347804#0 -951347804#0.1 -951347804#0.6 -951347804#0.20 -951347804#0.28 -951347804#0.33 -951347804#0.39 -45378651#0 -45378651#0.20 -313316104#1 -313316104#0 -313316082 -45378649#12 -45378649#11 -45378649#11.22 -45378649#10 -45378649#10.20 -45378649#9 -45378649#9.7 -45378649#7 -45378649#7.4 908869241#0 908869241#0.15 908869241#0.77 -908869239 -908869239.8 -908869239.11 -908869239.13 -908869239.15 -908869239.18 951354762#0 951354762#0.9 951354762#0.12 951354762#0.15 951354762#0.18 951354762#0.94 951354762#0.96 951354762#0.97 951354762#0.99 951354762#0.100 951354762#0.102 951354762#0.106 951354762#0.107 951354762#0.109 951354762#0.110 951354762#0.112 951354762#0.127 951354762#0.129 951355295 -896786262#3 -896786262#3.9 -896786262#1 -951354764#1 -951354764#0 -951354764#0.33 -951354764#0.44 -951354764#0.55 -951354764#0.67 951354765#0 951354763#1 951358824#1 896786253 896786253.47 896786253.111 896786263#4 896786263#6 896786263#7 896786263#7.19 -896786249#0 -896786249#0.32 -896786249#0.71 -896786265#0 896786266#11 896786266#11.13 909024250#0 909024250#1 909024250#2 909024250#4 909024250#5 909024250#6 909024239#0 909024239#1 909024239#1.17 909024239#2 909024239#2.40 -951983585 877396860#3 -904371460#5 -904371460#4 -904371460#4.9 -904371460#4.24 904371457 877398366#6 877398366#8 877398366#8.29 877398366#8.95 896786286#0 896786286#0.25 896786287#0 896786287#0.74 951995479#1 877398520#2 877398520#2.17 896786292#3 896786292#4 896786292#4.57 896786286#3 -877396033#4 -877396033#4.15 -877396033#2 -877396033#1 -877396033#1.14 -877396033#0 -671191680#15 -671191680#15.78 -671191680#14 -671191680#13 -671191680#11 -904286375#3 -904286375#2 -904286375#2.19 -904286375#1 -904286372#0 -904286373#3 -904286373#3.24 -904286373#3.27 -904286373#2 -904286373#2.6 -904286373#1 -951975997 -671191680#8 896786325#0 896786325#0.98 896786325#0.107 896786325#0.114 896786325#0.120 896786325#0.127 896786325#0.178 896786325#1 -896786328#1 -896786328#0 -896786328#0.177 -877395784#20 -877395784#19 -877395784#17 -877395784#17.8 -877395784#17.24 896786335#0 951976000#0 -951975999 -877395784#14 -877395784#14.13 951946817#0 -951946816#10 -951946816#9 -951946822 951946821#2 -951946820#0 951946819#1 -951946818#2 -951946818#0 951946833#9 951946833#9.22 951946833#11 951946833#11.92 951946833#11.95 951946833#11.98 951946833#11.101 -951946806#0 -952365020 -952365021 -951878231#2 -951878231#1 -951878231#1.26 -951868611#0 -951951643#4 -951951643#3 -951951643#2 -951951643#1 951951648#0 951951649 -951878263#6 -951878263#5 -951878269#15 -951878269#14 -951878269#13 -951878269#12 -951878269#10 -951878269#9 951891767 951891769#0 951891769#0.18 951891769#0.24 951891769#0.29 951891769#0.46 951891769#0.50 -951891768 -950288028#1 -950288028#0 951878269#5 951891765#0 951891765#1 -951887654#2 -951887654#1 -951887654#0 700825962#4 700825962#4.25 700825962#4.106 700825962#4.130 904196454#0 951887655#0 951887655#1 951887657 -951891763#2 -951887659#1 -951887660#5 -951887660#3 -951887662 951887661#2 951887661#3 951878266#0"/>
</vehicle>
<vehicle id = "veh12" type= "veh_passenger" depart="14420" >
<route edges =" 951370989 951370989.40 951370989.47 951370989.53 951370989.56 951370989.62 951370989.64 951370989.67 -902433320#1 -902433320#0 902433321#2 45342799#21 45342809#0 951368600#0 -951368603#1 951368601#0 951368601#1 -45342797#2 -45342797#1 -45342797#0 -45342834#1 -45342834#0 44740902#8 44740902#9 44740902#9.47 -951370984#2 -951370984#1 45342816#1 -45342814#2 -45342814#1 44740902#11 44740902#12 44740902#13 44740902#14 44740902#14.81 44740902#14.94 -874839172#0 -44740943 -313316091#20 -313316091#19 -313316091#18 -313316091#18.26 -313316091#17 -313316091#16 -313316091#14 -313316091#14.20 -313316091#12 -313316091#11 951438765 -44740948#0 44740946#1 -313316091#8 -313316091#8.29 -313316091#6 -313316091#5 -313316091#5.44 45378685#0 45378685#0.22 45378685#1 45378685#2 45378655#4 -45378656#1 -45378656#0 -45378656#0.43 -45378656#0.46 -45378656#0.48 -45378656#0.49 -45378656#0.51 -45378656#0.58 -45378656#0.60 -45378656#0.62 -45378656#0.64 45378654#1 45378657#4 -44739163#20 -44739163#19 -44739163#18 44740927#10 44740927#11 44740927#12 -44740928#2 -951358805#1 -951358805#0 951358806#1 -44740926#7 -44740926#6 -44740926#5 -44740925#1 -44740925#0 -44740930#8 -44739167#9 102277232#2 102277232#2.138 44739163#14 -44740930#5 44739156#14 44740981#0 44740983#0 44740983#1 -951358800#1 -951358800#0 -44740918#1 -44740918#0 44740920#6 -951358792 -951358792.26 -951358792.42 -951358792.53 -951358792.66 896892969#18 -971495601#9 -971495601#9.28 44740934#0 -668599375#2 -668599375#2.17 -668599375#1 -668599375#1.9 -668599375#0 44740916#11 -971495601#6 -971495601#5 -971495601#3 -971495601#1 -971495601#0 -313316086 -44739144#26 -903953334#9 -903953334#9.24 -903953334#9.50 -903953334#9.58 -903953334#8 -903953334#8.6 -903953334#8.17 -903953334#8.53 -903953325#4 -903953325#3 909778546#0 909778546#1 -951361609 903953324#1 903953324#1.22 702673217#0 702673217#1 702673217#2 896786289#3 -896786294#8 -896786294#7 -896786294#7.20 -896786294#6 -896786294#5 -896786294#5.6 -896786294#5.10 -896786294#5.13 -896786294#5.16 -896786294#5.19 -896786294#5.22 -896786294#4 -909024256#1 -909024256#1.22 -909024256#1.80 -896786277#3 -896786277#2 -896786276 -896786276.82 -896786294#0 -896786294#0.13 904286386#0 909024293#2 -909024292 -909024292.58 -896786290#3 877396860#14 877396860#14.38 -904286384#2 -904286384#2.34 -904286384#1 -904286384#1.25 904371470#2 -896786290#0 -904286385#12 904286375#0 904286375#1 904286373#0 904286373#1 904286373#2 904286373#2.10 904286371 -671191680#6 -671191680#5 904371490#0 904371490#1 904371490#2 904371490#4 -904286385#4 -951973457 -904371492#4 951973476#0 951973476#1 -951973471#2 -951973471#2.11 -951973471#2.14 -951973471#2.17 -951973471#2.20 -951973471#1 -951973471#0 -671191680#1 -671191680#1.13 -671191680#0 -671191680#0.38 -671191680#0.44 -671191680#0.48 -671191680#0.53 -671191680#0.58 -671191680#0.63 -671191680#0.76 -896786327#0 -877395784#21 -877395784#21.14 -951951638#10 -951951638#10.18 951973434#1 951951639#3 951973426#1 -951951638#8 -951951638#7 -951951638#5 -951951638#4 -951951638#3 -951951638#2 -951946794#1 -951946794#0 951946792#1 896786337#8 896786337#8.8 896786337#10 896786337#10.21 -951887700#20 -951887695#5 -951887682#5 -951887682#4 951887687#0 951887687#0.26 951887688#0 951887689 -951887700#16 -951887700#15 -951887700#14 -951887679#2 -951887679#1 -951887679#1.32 -951887679#1.35 -951887679#1.38 -951887679#1.41 -951887679#0 951887678#1 951887678#2 951887700#10 951887700#11 951961240#0 951961240#0.54 951961240#0.57 951961240#0.59 951961240#0.62 -951961245 951891772#0 951891772#1 -951891774 -951891771#1 -951891771#0"/>
</vehicle>
<vehicle id = "veh13" type= "veh_passenger" depart="14420" >
<route edges =" 45342801#5 45342801#5.32 902433317#3 902433317#4 902433317#6 902433317#7 902433317#8 902433317#8.29 951368593#1 972507120#2 972507120#3 -951369746#4 -951369746#4.24 -951369746#4.27 -951369746#4.29 951369745#0 951369745#1 951369745#1.13 951369745#1.18 951369745#2 951369745#2.2 951369745#2.14 951369745#2.20 951369745#2.26 -951369735 -951369735.5 -951369735.10 -951369735.15 -951369735.24 -951369735.30 -951369735.36 -951369740#1 -951369740#1.11 -951369740#1.14 -951369740#1.18 -951369740#1.22 -951369740#1.28 -951369740#1.32 -951369740#1.36 -951369740#1.40 -951369740#1.44 -951369740#1.64 -951369740#0 -951369740#0.4 -951369740#0.11 -45344273#26 897252876#0 897252876#0.16 897252876#0.57 897252874 -897252875#2 -897252875#2.29 -897252875#0 -897252875#0.4 -897252875#0.15 -897252875#0.35 897252876#3 897252876#4 45344320#2 -45344329#7 -45344329#6 -45344329#5 -45344329#4 902433295#3 45344330#0 45344326#0 45344326#0.4 45344326#0.22 -951404486#1 -951404486#0 45344333#2 -45344331#1 -45344331#0 45344326#3 699875133 699875130#1 -897252883#1 -897252883#0 -897252883#0.7 -897172091#1 -897172091#0 -45344296#0 -45344296#0.92 -45344296#0.150 -901885452#0 -897252884#0 -45344329#1 951370979#0 951370979#1 951370979#1.23 -951370978#0 45344291#1 45344291#1.23 45344291#2 45344291#3 45344291#3.27 45344291#3.54 45344291#3.63 45344291#3.68 45344291#3.139 -951370958 -45344288#0 -45344288#0.29 -45344294#3 897252857 897252858#2 897252858#3 -45344286#12 -45344286#11 951404497 951404497.20 951404497.26 951404497.33 951404497.38 951404497.43 -897252855#0 -45344287#0 -45344287#0.5 -45344287#0.14 -951384608#1 -951384608#1.59 -951384608#1.63 -951384608#1.67 -951384608#1.69 -951384608#1.73 -951384608#0 -951384608#0.43 -951384608#0.47 -951384608#0.50 -951384608#0.52 -702632123#1 -702632123#1.4 -702632123#0 45344272#13 45344272#13.4 45344272#13.35 45344298 896892974 971495602#11 971495602#12 971495602#12.26 971495602#12.77 951442813 951442812#0 -896786335#50 -896892981#13 -896892981#13.5 -896892981#13.13 -951349911#1 -951349910#1 -951349910#1.29 951354767 -896892981#10 -896892981#10.8 951354779 951354779.19 951354779.26 951354779.35 951354779.44 -896786335#46 -896786335#44 -896786335#44.9 -896786335#44.71 -896786335#43 -896786335#42 -896786335#42.22 896892977#0 896892977#0.14 896892977#1 896892977#1.45 896892977#1.56 -908869250#4 -908869250#4.38 -908869250#3 -908869238 -908869238.92 -896786335#39 -896786335#39.27 -896786335#37 -896786335#36 -951349917#1 -951349917#1.14 -951349917#1.29 -951349917#1.41 -951349917#1.59 -951349918 -951354772#1 -951354772#1.39 -951354772#1.50 -951354772#1.59 -951354772#0 -951354772#0.6 -951355289#1 -951355289#0 -896893028#1 -896893028#1.14 -951998766#1 -951998766#1.58 -951998766#1.64 -951998766#1.69 -951998766#1.73 896892983#10 896892983#10.17 896786297#1 896786297#1.48 896786297#1.100 896786297#3 896786297#4 896786297#4.10 896786297#4.18 896786297#4.21 896786297#4.23 -896893005#4 896893015#0 896893015#1 896893015#1.26 -896893016#1 896893017#0 896893017#1 -896786335#28 951358824#0 951358824#0.11 951358824#0.16 951358824#0.21 951358824#0.29 951358824#0.41 951358824#0.47 951358824#0.52 951354763#2 951354763#3 951354763#4 951354763#5 -951995492#0 -951995491#0 896786266#13 896786266#13.14 -896893013#7 -896893013#7.29 -896893013#7.87 -896893013#6 -896893013#6.15 896893003 951995485 -896786307#9 -896786307#9.12 -896786307#9.63 -896786307#9.67 -896786307#9.69 -896786307#7 -896786307#7.13 -896786307#6 -896786307#6.13 -896786307#6.32 877388976#0 877388976#0.43 877388976#0.77 877388976#1 877388976#1.12 877388976#1.51 877388976#1.72 896786304#1 896786304#2 896786300#0 896786300#0.23 896893013#0 896893013#0.10 896893013#0.59 -896893009 -896893009.79 -896893012#4 -896893012#3 -896893012#2 -896893012#2.9 -896893012#1 -896893012#0 -896893012#0.11 -896786303#4 -896786303#4.22 -896786303#3 -896786303#2 -896786303#2.23 -951983587#8 -951983587#7 -951983587#6 -951983620#1 -951983620#0 951983592#1 951983592#3 951983592#3.4 951983592#3.8 951983592#3.24 951983592#3.30 -951988579 951988578#1 -951988576#1 951988574#1 951988574#1.57 951988574#1.71 951988575#1 896786309#2 896786309#2.9 896786309#2.70 896786308#0 896786308#0.23 896786308#1 896786308#1.21 896786305#1 896786305#1.47 -896786307#2 -896786307#2.7 -896892994#1 -896892994#1.10 -896892994#1.34 -896892994#0 896786310#2 896786310#2.33 896786310#2.46 896786310#3 951983615 951983615.81 951983615.94 -951930617#11 -951930617#10 -951930617#10.5 -951930617#10.15 -951930617#9 -951930617#7 -951930617#6 951930620 896786309#17 -951935274#7 951988604#0 951988604#1 951988604#2 951988604#2.18 951988604#2.21 951988604#2.24 -951930625#1 -951930625#0 -951930625#0.6 -951930625#0.13 -951930625#0.21 -951930625#0.26 -951930625#0.32 951930616#11 -896786309#24 -896786309#24.6 -896786309#22 -896786309#22.8 -951930622 951930618#0 951930618#0.26 951930618#0.29 951930618#0.32 951930618#0.35 951930618#1 -951983608#2 -951983608#1 -951983611#3 951983612 951983612.19 951983612.23 951983612.27 896786310#8 896786310#8.5 896786310#9 896786310#9.40 896786310#9.54 896786310#9.61 -951983616#2 951983617#0 951983617#0.43 877398739#1 877398739#2 877398739#2.30 877398739#3 896786304#9 896786304#9.20 896786311#11 896786311#11.62 -951976011#1 -951976011#0 -896786321#1 -896786321#1.3 -951976012 -951976012.34 -951976012.37 -951976012.40 -951976012.44 -896786320#3 -896786320#3.5 -896786320#1 -896786320#0 896786315#2 896786315#4 896786318 896786318.40 -896786319#0 -896786319#0.11 -896786335#4 -896786335#4.18 -896786335#3 -896786335#3.10 -896786335#2 -896786335#1 -896786335#1.14 -896786335#0 877395784#17 877395784#17.13 877395784#17.29 877395784#19 951951639#0 951946803#0 951946795#1 951946795#2 -951946801 951951639#6 951951639#7 951951639#8 951951639#9 951951639#10 951951639#11 951946796#0 951946796#1 951946795#10 951946795#11 951946795#11.34 951946795#11.40 951946795#11.45 -951887683 -951887684 -951887682#6 951887695#5 671756019#0 -951961251#1 951961247#0 951961247#1 951961247#1.3 951961247#2 951951644#2 951951644#2.2 951951644#2.5 -951961252 951961249#1 951961249#1.17 951961249#1.19 951961249#1.21 951961249#1.24 -951961255 -951961255.19 -951961255.22 -951961255.25 -951961255.27 951961248#1 -876509484#6 -876509484#6.3 -876509484#6.8 -876509484#6.12 -876509484#6.15 951878264#0 951878264#0.74 951878265#0 -951878266#5 -951878266#5.22 -951878266#5.29 -951878266#5.37 -951878266#4 -951878266#4.37 -951878266#2 -951878266#1 -951878266#1.39 -951878266#1.47"/>
</vehicle>
<vehicle id = "veh14" type= "veh_passenger" depart="14420" >
<route edges =" -45342801#4 45342799#23 45342799#25 45342799#25.7 45342799#25.22 45342799#26 45342799#27 45342799#27.15 45342799#27.20 45342799#27.25 45342799#27.36 972507120#0 -903341083#3 -903341083#2 -903341083#1 -951368605#2 -951368605#1 -951368605#0 -45342811#0 -45342801#0 -45342798#1 -45342798#0 -45344273#21 -45344273#21.28 -45344273#19 45344322#0 -951440589 -951440589.14 -951440589.17 -951440589.19 -951440589.21 -951440589.37 -951440589.40 -951440589.41 -951440589.44 -951440589.46 45344322#2 897252876#6 897252876#7 897252876#8 902433295#2 -45344329#3 -45344324#0 897252876#10 -45344293#3 -45344293#2 -45344293#2.10 -45344293#2.11 -45344293#2.12 -45344293#2.14 -45344293#2.15 -45344293#2.16 -45344293#2.18 -45344293#1 -45344293#1.78 -45344293#0 -45344273#13 -45344273#12 -45344273#11 -45344273#10 -45344273#10.42 -45344273#9 -45344273#8 -45344273#8.10 -45344273#7 -45344273#7.22 -951384596#1 -951384596#1.24 -951384596#1.31 -951384596#1.36 -951384596#1.46 -951384596#1.54 -951384596#1.60 -951384596#1.72 -951384596#1.107 -951417467 -951417467.14 -951417467.15 -951417467.17 -951417467.18 -951417467.21 -951417467.23 -951417467.24 -951417467.25 951384598#2 -951384597 -951384597.29 -951384597.36 -951384597.43 -45344273#3 -45344273#3.6 -45344273#3.14 -45344273#3.31 -45344273#3.48 -45344273#2 -45344273#2.6 -45344273#2.24 -45344273#1 -45344273#1.7 -45344273#0 -897252881 -45378637#10 45378639#7 -951404483#2 -951404484#9 -951404484#9.20 -951404484#8 -951404484#6 -951404484#5 951404481 45378639#10 45378639#11 45378639#12 45378639#12.8 -45344310#1 -45344310#0 -45344310#0.10 -45344310#0.18 -45344310#0.30 -45344310#0.41 -45344310#0.52 971495602#8 971495602#8.24 971495602#8.86 -313316104#6 -313316104#5 -313316104#5.12 -313316104#5.27 -313316104#5.46 -313316104#4 -313316104#4.4 -313316104#4.18 -313316104#4.31 -313316104#4.41 -313316104#4.56 -313316104#3 -313316104#2 -313316104#2.13 -313316104#2.35 -313316104#2.44 -313316104#1 -313316104#0 -313316082 -45378649#12 896786296#0 -951355298#2 -951355298#2.7 -951355298#2.9 -951355298#2.11 -951355298#2.15 -951355298#2.38 -951355298#2.43 -951355298#1 -951355298#1.5 -951355298#1.10 -951355297#1 -951355296 -951354759#0 -951354759#0.4 -951354759#0.15 -951354759#0.20 -951354759#0.24 -45378649#5 -45378649#5.24 -45378649#5.57 -45378649#5.68 -45378649#3 -45378649#3.8 -45378649#2 -45378649#2.8 951354763#0 -951354765#0 -896786265#6 -896786265#6.26 -896786265#5 -951358820 -951358820.17 -951358820.20 -951358820.22 -951358820.25 -951358820.28 -951358820.45 -951358820.48 -951358820.50 -951358820.53 -951358821#1 -951358821#0 -951358821#0.3 -951358821#0.6 -951358821#0.9 -951358822#0 -951358822#0.4 -951358822#0.8 -951358822#0.13 -896786265#2 -896786265#0 909024253#0 951995490#0 951995490#1 951995490#1.10 951995490#1.14 951995490#1.17 951995490#1.20 909024250#2 909024250#4 909024250#5 909024250#6 909024239#0 909024239#1 909024239#1.17 909024239#2 909024239#2.40 877398366#3 -951995475#3 -896786288#1 -896786288#0 -896786288#0.20 -896786288#0.42 -877398520#0 -877398520#0.16 -904371459 -904371459.17 -904371459.33 -904371460#1 951995474 877396860#8 -904371462#0 -904371463#0 904371465#1 904371465#2 -904371467#0 -896786328#2 -896786328#2.49 -896786328#1 -896786328#0 -896786328#0.177 -877395784#20 -877395784#19 -877395784#17 -877395784#17.8 -877395784#17.24 -877395784#15 951946833#0 -951946816#11 -951946816#10 -951946816#9 -951946816#7 -951946820#1 -951946821#2 -951946821#1 -951946821#0 -951946821#0.2 -951946821#0.6 -951946821#0.9 -951946818#2 -951946806#8 951951629 -951951630 -951946806#1 -951946806#1.48 -951946806#1.55 -951946806#1.61 -951946806#1.69 -951946806#1.82 -951946806#1.90 -951946806#1.98 -951946806#0 -952365020 -952365021 -951878231#2 951868619#0 951868620#0 -951868611#1 -951878231#0 951951645 -951951643#3 -951951646 -951951642#2 -876509484#2 -951951643#1 951951648#0 951951648#1 -951951642#0 951878263#6 951878263#7 951878263#8 951878230#4 -951891772#4 -951961237 -951891766#2 -951891766#2.2 -951891766#2.6 -951891766#2.10 -951891766#2.15 -951891767 -951878269#7 -951878269#6 951891765#0 951887656#2 -951891764#2 -951891764#1 951891763#0 951891765#3 -951917022 951887661#1 951887662 -951887660#2 -951887660#0 877401978#1 951878266#0"/>
</vehicle>
<vehicle id = "veh15" type= "veh_passenger" depart="18025" >
<route edges =" 951370989 951370989.40 951370989.47 951370989.53 951370989.56 951370989.62 951370989.64 951370989.67 -902433320#1 -902433320#0 902433321#2 -45342799#20 -45342797#4 -45342797#3 -45342797#2 -45342797#1 -45342797#0 45342834#2 45342809#3 -45342798#2 -45342798#1 45342840#0 45342840#1 45342840#1.79 45342840#1.84 45342840#1.87 45342840#1.91 45342840#1.95 45342840#2 -45342839#1 -45342838#2 -45342838#1 -45342838#0 -45342810#0 45342809#5 -45342836#2 -45342836#0 45342818#2 45342818#3 -45342814#4 -45342814#3 -45342814#2 -45342813#2 951370984#2 44740902#10 44740902#10.9 44740902#11 44740902#12 44740902#13 44740902#14 44740902#14.81 44740902#14.94 -874839172#0 -44740943 -313316091#20 -313316091#19 -313316091#18 -313316091#18.26 -313316091#17 -313316091#16 45378639#0 45378639#0.48 -45378689#5 671761561 -44740940#2 -44740940#1 -44740940#0 44740953#3 44740953#4 44740951#0 -44740952 -44740953#6 951358801 -44740927#10 44739163#18 -44740918#2 -44740918#1 44740931#0 44740931#1 -313316091#1 -313316091#1.32 -313316091#0 -313316091#0.27 -313316091#0.72 -313316091#0.80 45340579#18 45340579#18.164 44740932#0 44740932#2 44740916#8 44740916#9 44740916#9.64 -909019783 -909019783.98 -45378660#1 -45378660#1.21 -45378660#1.52 -45378660#1.88 -45378660#1.126 -908560900#3 -908560900#2 -908560900#1 908560901#22 908560901#22.77 908560901#22.89 -971495601#0 -313316086 -44739144#26 -44739144#24 909024272#0 909024272#0.29 909024272#1 909024272#1.30 909024272#1.53 -909024271#0 -909024271#0.59 -909024271#0.78 -909024277#1 -909024277#1.20 -909024277#0 -909024279#3 -909024279#2 -909024279#2.12 -909024279#1 -909024279#1.6 -909024279#1.9 -909024279#1.11 -909024279#1.14 -909024279#1.17 909024278#0 909024278#0.46 909024278#0.119 909024278#1 909024278#1.42 -896786294#6 -896786294#5 -896786294#5.6 -896786294#5.10 -896786294#5.13 -896786294#5.16 -896786294#5.19 -896786294#5.22 -896786294#4 -896786294#3 -896786294#3.26 951992347 -896786277#2 -896786277#0 877398366#16 904286386#0 -909024293#1 -909024293#1.14 -909024293#1.28 -909024290 -909024290.32 877396860#17 877396860#17.31 877396860#18 877396860#18.31 896786289#0 896786289#0.42 909024265#0 909024265#1 909024265#2 909024265#2.13 909024265#3 44739144#15 951346850 -671960103#0 671960104#1 671960104#2 671960104#3 671960104#4 671752228#2 671752228#3 -671960101#14 -671960101#13 -671960101#12 -671960101#10 44740913#4 44740913#5 -44739144#12 -44739144#11 -909778559#1 672815156#0 44740912#7 44739144#9 -904371478#2 -904371478#2.24 -904371478#1 -904371478#1.6 904371476 904371475#1 -904371474#3 -904371474#2 -904371474#1 -904371474#0 -904371474#0.12 904286386#3 904286386#3.9 904286386#3.31 904286386#4 904286386#4.19 904286386#6 904286386#7 951973455 951973456#1 951973451#1 -951973453#1 -951973454 951973452#2 951973452#3 -904371488#8 -904371488#8.6 -904371488#8.17 -904371488#7 -904371488#7.3 -904371488#7.6 -904371488#6 -904371488#5 -904371488#4 904371486#0 951992348 -904286385#8 -904286385#6 -904286385#5 -904286385#5.9 -904371490#4 -904371492#6 -904371456#3 -951973471#3 -951973471#2 -951973471#2.11 -951973471#2.14 -951973471#2.17 -951973471#2.20 -951973471#1 -951973471#0 -671191680#1 -671191680#1.13 -671191680#0 -671191680#0.38 -671191680#0.44 -671191680#0.48 -671191680#0.53 -671191680#0.58 -671191680#0.63 -671191680#0.76 -896786327#0 -877395784#21 -877395784#21.14 -951951638#10 -951951638#10.18 951973434#1 951951639#3 951973426#1 -951951638#8 -951973432#0 -952002224#5 -952002224#5.5 -952002224#4 -952002224#4.27 -952002224#3 -952002224#3.30 -952002224#3.48 -952002224#3.80 -952002224#2 -952002224#2.36 -952002224#1 896786337#4 951951638#0 -952000397 -951951639#14 -951946794#0 951946792#1 896786337#8 896786337#8.8 896786337#10 896786337#10.21 -951887700#20 671756019#0 671756019#1 671756019#2 671756019#2.43 671756019#3 671756019#4 -951887700#18 -951887700#17 -951887700#17.17 -951887700#16 -951887700#15 -951887700#14 -951961240#3 -951961240#1 -951961245 951891772#0 -951891773 -951891771#0"/>
</vehicle>
<vehicle id = "veh16" type= "veh_passenger" depart="18025" >
[...]
</vehicle>
<vehicle id = "veh18" type= "veh_passenger" depart="21630" >
<route edges =" 951370989 951370989.40 951370989.47 951370989.53 951370989.56 951370989.62 951370989.64 951370989.67 -902433320#1 -902433320#0 902433321#2 45342799#21 45342809#0 45342809#1 45342809#2 45342809#3 45342798#3 -45342837 -951441769 -951370985#0 -45342818#2 -45342818#1 -45342817#2 -45342803#7 -45342803#6 -45342803#5 -45342803#4 -45342803#3 45342820#0 45342820#1 -45342822#1 -45342832#1 -45342832#0 -45342804#2 45342831#0 -951417482#2 -951417482#1 -951417481 45342805#3 45342805#4 45342809#14 45342824#0 -45342833#2 -45342833#1 -45342833#0 -897252872 -897252872.99 -45342808#2 45342804#0 -45342843#3 -45342843#2 951417477 44740957#1 44740957#2 44740957#4 -671399051#1 -671399051#0 -44740942#1 44740901#1 -951417475#1 -974189220#3 -44740895#3 -44740895#2 -44740895#2.69 44740972#0 44740972#1 -44740969#4 -44740969#2 -951439006 -951439007 -951439008 955813295#1 955813295#1.169 955410233 -44740922#8 -44740922#7 -44740922#6 44740926#0 44740926#1 44740924#0 44740924#1 -44740927#15 -44740927#14 44739167#12 44739167#13 -44740945#1 44740946#0 44740948#0 44740948#1 44740940#2 -313316091#12 45378690#0 45378690#0.38 -45378691 45378682#1 45378689#1 45378688#0 45378655#0 45378655#1 45378655#2 45378655#3 -45378685#2 -45378685#1 45378654#0 45378654#1 45378657#4 -313316091#2 -313316091#2.44 -44740931#1 -44740931#0 -44740918#0 44740920#6 44740920#8 -313316091#0 -313316091#0.27 -313316091#0.72 -313316091#0.80 -971495601#9 -971495601#9.28 -971495601#8 -971495601#7 44740916#12 -909019766#1 -909019766#1.6 -909019766#1.14 -909019766#1.30 -909019766#1.52 -909019766#0 909019767#1 909019767#1.24 909019767#1.35 -971495601#5 -971495601#3 -971495601#1 -971495601#0 -313316086 -44739144#26 -44739144#24 909024272#0 909024272#0.29 909024273#0 909024273#0.33 909024273#1 909024273#2 909024273#3 909024276#0 909024276#0.40 951433468 951433468.11 951433468.23 951433468.31 951433468.39 951433468.48 951433468.57 -896786296#16 -896786296#15 -896786296#15.18 -896786296#14 -896786296#14.71 -909024258#1 -909024258#1.26 -951347813#1 -951347813#1.7 -951347813#1.12 -951433464 951347814#1 951347814#1.5 951347814#1.9 896786295#4 896786295#5 -896786282#4 -896786282#4.21 -896786282#4.92 896786281#0 896786280#1 -896786275#5 -896786275#4 -896786275#3 896786271#1 896786271#2 896786271#2.11 896786295#10 -896786269#9 -896786269#7 -896786275#0 -896786275#0.11 896786268#2 896786268#2.6 896786268#3 896786295#13 -896786294#5 -896786294#5.6 -896786294#5.10 -896786294#5.13 -896786294#5.16 -896786294#5.19 -896786294#5.22 -896786294#4 -909024256#1 -909024256#1.22 -909024256#1.80 -909024256#0 -909024256#0.28 896786279#5 896786278#1 896786267#2 877398366#14 877398366#14.18 -904286380#3 -904286380#3.41 904286378#0 904286378#1 -904286382#2 -877396860#11 -671191680#13 904286381#0 904286382#0 -904286383#4 -904286379 904286381#3 904286381#3.4 904286381#3.18 -904286372#1 -904286372#0 904286373#4 -904286385#6 -904286385#5 -904286385#5.9 904371489#0 671191682#0 671191682#1 671191682#2 904371493#3 -671191681#2 -951973437#1 -951973438#1 -951973438#1.17 -951973438#1.20 -951973438#1.25 -951973438#1.31 -951973439 951973436#2 -671191681#0 904286385#1 904371493#5 904371492#2 -904371491 904286385#3 -951973457 904371492#5 904371492#6 951973470#0 -951973471#4 -904371456#2 -904371456#2.22 -904371456#1 -904371456#0 -904371456#0.17 -671191680#0 -671191680#0.38 -671191680#0.44 -671191680#0.48 -671191680#0.53 -671191680#0.58 -671191680#0.63 -671191680#0.76 -896786327#0 -877395784#21 -877395784#21.14 -951951638#10 -951951638#10.18 951973434#1 951951639#3 951973426#1 951973426#2 -952002224#6 951973432#0 -951951638#7 -951951638#5 -951951638#4 -951951638#3 -951951638#2 -951951638#1 -951951638#0 896786337#5 896786337#5.11 896786337#6 896786337#7 896786337#8 896786337#8.8 896786337#10 896786337#10.21 -951887700#20 -951887700#19 -951887700#18 -951887690 -951887688#1 951887689 -951887700#16 -951961233#4 951961244 951961244.37 951961244.40 951961244.43 951961244.47 -951961242#1 -951961242#0 -951961240#1 -951961245 951891772#0 -951891773 -951891771#0"/>
</vehicle>
<vehicle id = "veh19" type= "veh_passenger" depart="21630" >
<route edges =" 45342801#5 45342801#5.32 902433317#3 951421968#0 951421968#1 951421968#1.20 951421968#2 951421968#2.9 -45344271#34 -45344271#32 951368595#0 951368595#1 951368595#1.17 951368595#1.34 902433317#8 902433317#8.29 902433317#9 951368594#0 951368594#1 951368594#2 972507120#3 -951369746#4 -951369746#4.24 -951369746#4.27 -951369746#4.29 951369745#0 -951381440 -951369738 -951369738.5 -951369738.18 -951369738.24 -951369738.31 951369741#4 -951369746#0 -951369746#0.7 -951369748#0 -951369748#0.14 -951369748#0.17 -951369748#0.19 -951369748#0.22 951379886#1 951379886#1.14 951379886#2 951379886#2.14 951379886#2.19 951379886#2.22 951379886#2.25 951379886#2.28 -951369741#1 -951369741#1.20 -951369741#1.25 -951369741#1.30 45344273#27 45344273#27.17 45344273#28 45344273#29 45344273#29.12 45344273#29.34 45344273#30 45344273#30.8 45344273#30.25 45344273#30.39 897252882#1 897252882#1.10 897252882#2 897252882#2.30 897252882#2.48 897252882#3 897252882#3.15 -950755152#2 -950755152#2.42 -950755152#2.59 -950755152#2.65 950755151 950755151.35 950755151.45 950755151.55 45344271#26 45344271#26.18 950235711#0 -950757969#5 -950757969#4 -950757969#3 950757966#0 -950757965 -950757970 -876567894#51 -876567894#51.14 -876567894#51.27 -902822410#5 -902822410#5.39 -902822410#4 -951132942#8 -950235713#4 -950235713#4.13 -950235713#4.16 -950235713#4.19 -950235713#4.23 -950757960#0 950757959#0 950757958#0 950757958#0.22 950757958#1 -950759350#2 -902433292#6 -902433292#5 -902433292#4 -950235714#3 -950235714#2 -950235714#1 -950759347#1 -950759347#1.4 -950759347#1.8 -950759347#1.13 -950759347#1.29 -950759347#1.34 -950759347#1.39 -950759347#1.44 -950759347#1.51 -950759347#1.81 -950759347#1.85 -950759347#0 -950759347#0.3 897252886#0 897252886#0.21 897252886#0.44 897252886#1 897252886#1.30 897252886#1.51 897252886#2 897252886#2.18 897252886#2.33 897252886#4 897252886#4.10 897252886#4.25 897252886#4.39 45344273#32 45344273#32.22 45344273#32.44 45344273#33 45344273#34 45344273#34.26 45344273#35 45344273#35.26 45344273#36 45344273#36.18 -950238179#1 -950238179#0 -950238178#3 -950238178#1 -950238178#0 -897252880#8 -897252880#8.44 950238184#0 -950238180#3 -950238180#3.35 -950238180#3.57 -950238180#3.61 -950238180#3.64 -950780324#1 -950780324#1.27 -950780324#1.31 -950780324#1.35 -950780324#1.39 -950780324#1.41 -950780324#1.44 950238184#2 950238184#2.9 950238184#2.18 950238184#2.27 -950780323 -950780323.12 -950780323.20 -950780323.27 -950780323.33 -950238182#1 -950238182#1.7 -950238182#1.15 -950238182#1.25 950238181#2 950238181#2.17 950238181#2.20 950238181#2.22 950238181#2.24 950238181#2.38 950238181#2.44 950238181#2.47 950238181#2.51 950238181#2.55 950238181#2.59 950238181#2.64 950238181#3 950238181#3.17 950238181#3.25 950238181#3.34 950238181#3.40 950238181#3.49 -950238180#0 45344278#5 -45344271#15 -45344271#13 -45344271#13.24 -45344271#12 950806850#0 -950806860#1 950235723#1 -45344277#7 -45344277#6 950806852#0 950806852#0.16 950806852#0.21 950806852#0.26 950806852#0.31 950806852#0.35 -950806851 -950806851.20 -950806851.22 -950806851.24 -950806851.27 -950806851.30 -45344277#3 -45344277#2 -45344277#1 -45344277#0 45344276#3 902433292#0 902433292#0.18 902433292#1 902433292#1.12 902433292#2 -950235719#4 -950235719#3 950759343 950759343.33 -902822419#7 -902822419#6 -902822419#6.19 -902822419#6.57 950872171#1 950872171#1.7 950872171#1.16 -950806849#0 -950806849#0.8 -950806849#0.17 -950235727#7 -950235727#6 -950235727#5 950806855#0 950806855#0.39 950806855#0.41 950806855#0.43 950806855#0.45 950806855#0.47 950806855#1 950806855#1.3 950806855#1.8 950235725#2 950235725#3 950235725#4 950235725#5 950806853 -950235727#1 -950235727#1.45 897252880#3 897252880#4 950235729#0 950235729#1 950235729#2 950235729#3 -950235730#0 -950235730#0.38 -950235730#0.45 -950235730#0.52 950641812#2 950641812#3 950641809#0 -950641810 -950641810.14 -950641810.18 -950641810.22 -950641810.27 950235732#1 950235732#2 950235732#3 950235732#4 950235732#5 950235732#5.16 951077734#0 -950241846#1 -950241846#1.22 951043903 950241823#3 45344284#12 45344284#12.58 950872160#0 950872160#1 950872160#1.50 950872160#1.69 950872160#2 950872160#2.4 950872160#3 950872160#4 950872160#4.25 950241832#0 950241832#1 950241821#3 -951014858#0 -951014858#0.81 -950929127#4 -950929127#4.20 950241828#0 950241821#5 -950241831#1 -950241831#0 -950929127#2 950241825#0 950241825#1 950241825#1.27 950241825#2 950241825#2.8 951014868#0 951014868#1 950241823#8 -951014855#2 -950241819#5 -951043906#0 -951043906#0.33 -951043906#0.37 -951043906#0.41 950241821#9 -950241819#2 -950241819#1 -950241819#0 950929121#1 950929121#1.8 950929121#1.24 950929121#1.32 950929121#1.39 950241818#1 950241818#1.41 950241818#2 -950241823#5 -950929127#0 45344271#5 -45344284#9 -45344284#8 950238188#0 950238188#2 -950241847#7 -950241847#7.19 -950241847#6 -950241847#5 -950241847#5.4 -950241847#5.12 -950241847#5.18 -950241847#5.23 -950241847#4 950238186#1 950238186#2 45344271#7 45344271#7.34 -950641813#1 -950641813#1.14 -950641813#1.27 -950641813#1.43 -950641813#1.59 -950641815#1 -950641815#1.35 -950641815#1.42 -950641815#1.47 -950641814 950238188#4 950641816#13 950641816#13.45 -45344282#0 -45344272#0 -45344273#40 -950235700#3 950235699#0 950235695#0 950235695#1 950235702 950732875#1 950235694#2 950235692#1 950235692#2 950235697#0 950732876 950235699#3 950235699#4 950235699#5 -950238177#1 -950238177#1.15 950235705#0 950235705#1 950235705#1.22 950235705#1.46 950235705#1.60 950235705#1.74 950235705#1.85 -951381441 -951381441.32 -951381441.36 -951381441.38 -951381441.41 -951381441.44 -951381441.47 -951381441.76 -951381441.82 -951381441.85 -951381441.89 -951381441.93 -950455048#1 -950455048#1.49 -950455048#1.67 -950455048#1.78 950455051#0 950455051#0.11 950455051#0.26 950455051#0.42 950455050 950455050.9 950455050.11 950455050.13 950455050.15 950455050.26 950455050.29 950455050.31 950455050.34 950455050.49 950455050.55 950455050.63 951381436 951381436.26 951381436.34 951381436.39 951381436.45 -897252875#0 -897252875#0.4 -897252875#0.15 -897252875#0.35 -45344336#9 -45344336#9.10 -45344336#9.61 -45344336#9.126 -45344336#9.147 -45344336#8 -45344336#8.20 -45344336#8.27 -45344336#8.33 -45344336#7 -45344336#7.6 -45344336#6 -45344336#6.35 -45344336#5 -700254524#1 -700254524#0 -950400191 -950400191.5 -950400191.10 -950400191.16 -950400191.25 -950235691#0 -950235691#0.4 950235690#1 -45344335#3 950400190 897172091#10 -45344327#1 -45344331#3 -45344331#2 -45344331#1 -45344331#0 -45344326#2 -45344326#2.15 -902433295#5 951381433 951381433.13 951381433.15 951381433.17 951381433.18 951381433.19 951381433.23 951381433.25 951381433.26 951381433.27 951381433.29 951381433.31 -897172091#4 -897172091#3 -897172091#1 -897172091#0 -45344294#6 -45344294#6.9 -45344294#6.25 -45344294#5 -45344294#5.7 -951370959 -951370959.20 -951370959.22 -951370959.23 -951370959.27 -951370959.28 -951370959.29 -951370959.30 -951370959.31 897252858#0 951370960 -951370961#0 897252852#6 897252852#6.19 897252858#3 -45344286#12 -45344286#11 -45344286#9 -45344286#9.15 -45344286#9.41 -45344286#9.67 -45344286#8 -45344286#7 -45344286#6 -45344286#6.52 -45344286#4 -45344286#4.11 -45344286#3 -45344286#3.9 -45344286#3.30 -45344286#3.45 -45344286#2 -45344286#2.12 -45344286#2.42 951440588 951440588.19 951440588.23 951440588.28 951440588.33 951440588.54 951440588.59 951440588.67 951440588.90 951440588.105 951440588.109 951440588.113 951440588.119 951440588.124 951440588.129 951440588.138 951440588.140 951440588.143 951440588.148 951440588.162 951440588.168 951440588.174 951440588.183 951440588.193 951440588.221 951440588.225 951440588.229 951440588.234 951440588.238 951440588.244 951440588.248 951440588.251 951440588.254 951440588.258 -951384601#1 951384600 -702632123#2 -702632123#1 -702632123#1.4 -702632123#0 45344272#13 45344272#13.4 45344272#13.35 45344298 896892974 971495602#11 971495602#12 971495602#12.26 971495602#12.77 951442813 951442812#0 -896786335#50 -896892981#13 -896892981#13.5 -896892981#13.13 -896892981#12 -896892981#10 -896892981#10.8 951354779 951354779.19 951354779.26 951354779.35 951354779.44 -896786335#46 951358828 951358828.11 951358828.13 951358828.16 951358828.19 951358828.22 951358828.26 951358828.29 951358828.32 951358828.42 951358828.46 951358828.50 951358828.53 951358828.57 -896786247#8 -896786247#7 -896786247#7.2 -896786247#6 -896786247#6.66 -896786247#6.103 -896892976#1 -896892976#1.4 -896892977#3 -896892977#3.15 -896892977#3.37 -896892977#2 908869250#5 -908869248#1 -908869248#1.4 -908869248#1.6 -908869248#1.9 -908869248#1.11 -908869248#1.19 -951358827#2 -951358826 -951358826.10 -951358826.13 -951358826.16 -951358826.19 -951358826.36 -951358826.40 -951358826.44 -951358826.49 -896786335#42 -896786335#42.22 896892983#0 896892983#0.10 896892983#1 896892983#1.19 -951421976 896892982#2 -896786335#39 -896786335#39.27 -908869251 -908869251.5 -908869251.7 -908869251.10 -908869251.12 -908869251.30 -908869251.35 -908869251.40 -908869251.44 -908869251.48 -908869251.66 -908869251.70 -908869251.73 -908869251.76 -908869251.78 896786248#1 896786248#1.30 896786248#1.43 -896786335#34 -896786335#33 -896786335#32 -896786335#32.17 -896786335#31 -896786335#31.22 -896786335#30 -896786335#29 -896786335#29.17 -896893017#1 -896893018#1 -896893018#1.27 -896893018#0 -877388728#13 -877388728#13.55 -896893014#1 -896893014#0 -896893014#0.9 -896893028#0 -896893028#0.19 -877388646#5 -877388646#5.83 -951998772 896893027#1 896893027#1.21 -896893026#1 -896893026#1.16 -896893026#1.19 -896893026#1.21 -896893026#1.33 -896893026#1.37 -896893026#1.40 -896893026#0 -896786297#6 -896786297#6.39 -896892990 -896892991#0 -896892991#0.12 -896893005#2 -896893005#2.6 -896893005#1 -951995485 896893004#2 896893004#3 896893004#3.24 896893004#4 896893004#5 -896786335#23 -896786335#23.44 -896786335#22 -896786335#21 -896786335#21.41 -896786335#19 -896786335#18 -896786335#17 -896786335#17.2 -896786335#16 -896786335#16.7 -896786335#15 -896786335#14 -896786335#14.27 -896786335#13 -951983587#9 -896786303#1 -896786303#1.61 -896786303#0 896786311#13 896786311#13.28 -896786335#10 -896786335#10.38 -896786335#9 -896786321#3 -896786321#3.6 -896786321#3.61 -896786320#3 -896786320#3.5 -896786320#1 -896786320#0 -896786316#3 896786317#0 951976005 896786315#4 896786319#4 896786317#2 896786317#2.28 896786317#3 896786317#3.44 -896786335#3 -896786335#3.10 -896786335#2 951976001#0 951976001#1 -951976000#3 -951976000#2 -951976000#2.3 -951976000#2.6 -951976000#2.8 -951976000#2.12 -951976000#1 -951976000#0 -896786335#0 -951946803#2 951946816#14 951946795#0 951946795#0.4 951946795#0.7 951946795#0.9 951946795#1 951946795#2 -951946801 951951639#6 951946800#1 951946795#4 951946795#6 951946795#7 -951946797 951951639#11 951946796#0 951946804 951946804.28 951946804.31 951946804.34 951946804.37 951946795#11 951946795#11.34 951946795#11.40 951946795#11.45 -951887683 -951887684 -951887682#6 -951887682#5 951887686#0 -951887688#2 951887690 -951887700#17 -951887700#17.17 951961234#0 951961234#1 -951878265#2 -951878265#1 -951878265#0 951878264#2 -951878263#3 -951878266#4 -951878266#4.37 -951878266#2 -951878266#1 -951878266#1.39 -951878266#1.47"/>
</vehicle>
<vehicle id = "veh20" type= "veh_passenger" depart="21630" >
<route edges =" -45342801#4 45342799#23 45342799#25 45342799#25.7 45342799#25.22 45342799#26 45342799#27 45342799#27.15 45342799#27.20 45342799#27.25 45342799#27.36 -951370987 -951370987.52 -951370987.54 -951370987.56 -951370987.57 -951370987.59 -951370987.62 -903341083#2 -903341083#1 -951368605#2 -903341082#1 -903341082#0 -903341082#0.45 -45342801#2 -45342801#1 -45342801#0 -45342798#1 -45342798#0 -45344273#21 -45344273#21.28 -45344273#19 -45344273#18 -45344273#18.17 -45344273#17 -45344273#17.20 -45344273#17.31 -45344273#16 -45344273#16.5 -45344273#16.30 -45344273#14 -45344273#14.32 -45344273#13 -45344273#12 -45344273#11 -45344273#10 -45344273#10.42 -45344273#9 -45344273#8 -45344273#8.10 -45344273#7 -45344273#7.22 -45344273#6 -45344273#6.40 -45344273#6.59 -45344273#5 -45344273#5.6 -45344273#5.15 -45344273#4 -45344273#4.8 -45344273#4.37 -45344273#3 -45344273#3.6 -45344273#3.14 -45344273#3.31 -45344273#3.48 -45344273#2 -45344273#2.6 -45344273#2.24 -45344273#1 -45344273#1.7 -45344273#0 -897252881 -45378637#10 -45378637#9 -951404484#10 -951404483#1 -951404474#1 951404473 -951404484#6 951404482 45378639#9 45378639#10 45378639#11 -951404475 -951404475.33 -951404475.43 -951404476 -951404476.16 -951404476.32 -951404476.50 -951404476.59 -951404476.68 -951404476.84 -951404476.93 -951404476.101 -951404476.106 -951404476.113 971495602#7 971495602#7.32 971495602#7.56 971495602#8 971495602#8.24 971495602#8.86 -313316104#6 -313316104#5 -313316104#5.12 -313316104#5.27 -313316104#5.46 -313316104#4 -313316104#4.4 -313316104#4.18 -313316104#4.31 -313316104#4.41 -313316104#4.56 -313316104#3 -313316104#2 -313316104#2.13 -313316104#2.35 -313316104#2.44 -313316104#1 -313316104#0 -313316082 -45378649#12 896786296#0 896786296#1 896786296#1.36 -896786262#6 -896786262#6.15 -951355297#2 -951355297#2.10 -951355297#1 -951355297#0 -45378649#7 -45378649#7.4 -45378649#5 -45378649#5.24 -45378649#5.57 -45378649#5.68 -45378649#3 -45378649#3.8 -45378649#2 -45378649#2.8 951354763#0 951354763#1 951354763#2 951354763#3 951995494#0 -951995491#2 -951995491#1 -951995491#0 -896786266#12 909024250#0 909024250#1 909024250#2 -909024251 -909024251.41 -896786293#5 -896786293#5.20 896786257#7 896786257#7.17 896786257#7.37 896786257#7.44 896786257#7.49 896786257#7.54 -45378665#1 909024239#0 909024239#1 909024239#1.17 909024239#2 909024239#2.40 877398366#3 951995475#4 -904371460#4 -904371460#4.9 -904371460#4.24 904371458#0 904371458#0.18 904371458#1 -877396860#4 -896786328#3 -896786328#3.70 -896786328#2 -896786328#2.49 896786325#2 -896786324#1 -896786324#0 -896786324#0.19 -896786324#0.132 -896786324#0.177 -877395784#19 -951946816#15 -951946816#14 -951946816#13 -951946816#13.3 -951946816#13.8 -951946816#12 951946833#1 951951640 951946817#2 951946817#3 -951946818#3 -951946818#3.18 -951946818#3.21 -951946818#2 -951946806#8 -951946806#7 -951946806#6 -951946806#6.36 -951946806#6.39 -951946806#6.41 -951946806#6.44 -951946806#4 -951946806#2 951951630 951946833#11 951946833#11.92 951946833#11.95 951946833#11.98 951946833#11.101 -951946806#0 -952365020 -952365021 -951878231#2 -951951643#6 951951644#0 -951951642#4 -951951642#3 -951951642#3.15 -951951642#3.18 -951951642#3.20 -951951642#3.23 -951951642#3.36 -951951642#3.39 -951951642#3.41 -951951642#3.43 -951951642#2 -951951642#1 -951951642#0 -951878263#5 -951878269#15 951891772#3 -951961237 951891766#3 -951878269#10 -951930613 951878270#2 877401978#0 877401978#1 951878266#0"/>
</vehicle>
</routes>
