<?xml version="1.0" encoding="UTF-8"?>
<routes xmlns:xsi="http: // www.w3.org/2001/XMLSchema-instance" xsi:noNamespaceSchemaLocation="http: // sumo.dlr.de/xsd/routes_file.xsd">
<vType id="veh_passenger" vClass="passenger"/>

<vehicle id = "veh0" type= "veh_passenger" depart="0" >
<route edges =" -813722269#3 -813722269#3.7 -813722269#3.48 -813722269#3.84 -813722269#3.86 620762213#0 620762213#0.9 620762213#0.88 620762212#0 620762212#0.8 620762212#0.52 6343949#6 6343949#7 6343949#8 6343949#8.52 6343949#10 6343949#10.49 6343949#12 6343949#12.47 -525497324#3 -525497324#2 243349944#4 243349944#4.53 243349944#6 243349944#7 -460419011#3 -460419011#2 6464126#3 6464126#3.49 6464126#5 -460419028#3 243349338#0 243349338#0.18 243349338#1 243349338#2 243349338#3 243349338#3.49 243349338#5"/>
</vehicle>
<vehicle id = "veh1" type= "veh_passenger" depart="0" >
<route edges =" -6457203#16 -6457203#16.59 975126260#0 975126260#0.49 -6505136#16 6368504#5 6368504#5.48 6368504#7 6368504#7.50 -6513783#8 -6513783#7 37657905#3 37657905#3.48 37657905#5 37657905#5.10 37657905#5.46 37657905#7 37657905#7.49 476409329 -6383185#5 6384373#1 6384373#2 6384373#2.45 6384373#2.56 -65588097#1 -65588097#1.119 337818330 6463035#0 6463035#0.14 6463035#0.38 6463035#3 -6495801#0 -185485132#12 -185485132#12.125 -185485132#11 -185485132#11.16 243349945#9 243349945#9.50 -6494975#8 -6494975#7 -6494975#6 -6494975#6.81 256994205#3 428246847#0 428246847#0.8 428246847#0.22 6386110#0 6386110#0.16 6386110#0.25 6386110#0.55 -243349338#6 -243349338#6.14"/>
</vehicle>
<vehicle id = "veh2" type= "veh_passenger" depart="0" >
<route edges =" -6522868 -6403883#7 -6403883#6 -6403883#5 -6403883#4 -6403883#3 -6403883#2 158882505#7 158882505#8 8111709#0 8111709#0.47 8111709#2 8111709#2.49 8111709#4 8111709#4.49 -6513783#5 6384359#8 6384359#9 6384359#9.26 -6381494#3 -6381494#3.43 6463017#6 6463017#6.48 -6386837#0 337739268 337739268.124 337739267#0 337818462 337818462.3 337818462.6 337739271#1 337739271#1.6 337739269#0 -460419011#4 243349944#8 -801995081#5 -801995081#5.197 -801995081#5.209 -801995081#2 -801995081#2.109 -801995081#0 243339793#4 243339793#5 243339793#6 243339793#6.50 243339793#6.74 -22917112 -185485118#1 6514312#0 6514312#0.70 -6523501#6 -6523501#6.6 185485127#1 -6494970#4 -6494970#4.172 -6494970#2 -6494970#2.4 -6494970#2.100 6358721#0 6358721#0.9 6415147#4 6415147#5 6415147#6 6351349#2 6351349#3 6351349#3.107 6351349#5 -185483733 -6414318#4 -157167355#0"/>
</vehicle>
<vehicle id = "veh3" type= "veh_passenger" depart="0" >
<route edges =" 817434294 817434294.10 817434294.36 817434294.44 817434294.63 817434294.119 6343949#0 6343949#0.7 6343949#0.86 6343949#3 6343949#3.9 6343949#3.49 620762212#3 6430729#6 6430729#6.47 6430729#6.48 6430729#9 6430729#9.48 6430729#11 6430729#11.51 6430729#13 6430729#13.48 6430729#15 6430729#15.48 6430729#17 6430729#17.51 -620762224#0 -66558981#7 -66558981#7.65 -66558981#7.83 -66558981#7.105 -66558981#7.123 -66558981#2 -66558981#2.131 -66558981#2.234 525497323#2 525497323#2.81 -481291488#2 -481291488#1 -481291488#0 -481291488#0.69 -481291488#0.82 -6447971#10 -6447971#10.11 -6447971#9 -6447971#8 -6447971#7 -6447971#6 -6447971#5 -6447971#4 169917351#6 169917351#7 169917351#7.49 169917351#9 169917351#9.48 169917351#9.87 169917351#12 169917351#12.9 169917351#12.42 169917351#12.90 -6360239#3 -6360239#3.6 -6360239#3.69 -6360239#3.102 6487445#0 6487445#0.8 6415147#0 6415147#0.61 6449462#3 6449462#3.7 6449462#3.50 6449462#3.60 6449462#3.72 6449462#3.87 795669782#0 795669782#0.54 795669782#2 6371720#2 6371720#3 157167355#0"/>
</vehicle>
<vehicle id = "veh4" type= "veh_passenger" depart="3605" >
<route edges =" -816616074#1 -816616074#1.10 -816616074#1.14 -816616074#1.119 428341734#4 428341734#4.8 428246439#0 428246439#0.14 428246438#0 428246438#0.8 428246440#0 428246440#0.62 800744529#0 800744529#0.7 800744529#0.52 800744529#0.89 -349901821 349901822#0 349901822#0.9 349901822#2 349901822#2.21 332092195#0 332092195#0.9 332092195#0.74 -22917111#30 -22917111#30.9 -22917111#30.50 -22917111#30.96 8071900#4 8071900#4.7 8071900#4.49 8071900#4.88 6440348#0 6440348#0.6 6440348#0.84 6440348#0.93 6440348#0.107 6440348#0.114 6440348#6 6440348#6.25 620762218#3 620762218#3.7 -525497324#2 243349944#4 243349944#4.53 -66558981#2 -66558981#2.131 -66558981#2.234 -6481166#12 -6481166#11 -6481166#11.122 -6481166#11.125 6464138#14 -481291488#1 6464126#0 6464126#0.46 6464126#0.49 460419011#2 40416132#1 40416132#1.90 256994206#0 256994206#0.8 256994206#0.43 256994206#0.60 460419028#0 460419028#0.11 460419028#0.49 460419028#0.79 460419028#0.95 243349338#0 243349338#0.18 6360256#4 6360256#5 6447445#3 6447445#3.51 -22917113#4 -22917113#3 243349338#2 243349338#3 243349338#3.49 243349338#5"/>
</vehicle>
<vehicle id = "veh5" type= "veh_passenger" depart="3605" >
<route edges =" -6457203#16 -6457203#16.59 -6457203#15 -6457203#15.22 -6345333 -6403883#5 6368504#0 -6469837#4 -6469837#4.19 158882511#9 158882511#9.51 8111707#0 8111707#0.47 6505136#15 6368504#5 6368504#5.48 -603522174#0 603522173#0 603522173#0.48 -6513783#9 -6513783#8 -170683231#20 -170683231#20.51 6381494#12 6381494#12.56 6368504#12 6368504#12.37 6368504#12.47 638348589 263666867#3 263666867#3.49 476409334#0 603522176#8 603522176#8.47 603522176#10 603522176#10.44 603522176#10.46 -8071885#0 -8071885#0.116 735164736 735164736.7 735164736.13 735164737 735164737.10 735164737.15 6451291#0 6451291#0.7 6451291#0.16 6451291#0.45 735164739 735164739.21 735164739.27 735164739.31 6459736#0 6459736#0.54 -6448615#1 -6448615#1.42 -6522860#1 -65588097#11 -65588097#11.42 6523125#1 6523125#2 -170683288#5 -170683288#5.41 -170683288#3 -170683288#3.39 -170683288#3.69 -170683288#3.76 -476409332#8 -476409332#7 6495798#3 -6345330#1 -6345330#0 -6460085#8 -6460085#8.39 -6460085#8.66 476409332#4 476409332#5 -6448612#8 170683231#4 170683231#4.50 170683231#4.58 170683231#7 170683231#8 170683231#8.40 6383185#7 -476409332#1 -476409332#1.39 791722143#0 791722143#0.9 791722143#1 476409328#0 476409328#0.201 6384373#0 6383185#5 61151096 -6460085#4 -6460085#4.20 -6460085#3 -6460085#3.55 6384373#2 6384373#2.45 6384373#2.56 -65588097#1 -65588097#1.119 337818330 -460421484#1 -460421484#1.13 -6486416#2 -6486416#2.9 -6486416#2.116 -805680044#0 -805680044#0.6 -805680044#0.45 -805680044#0.95 396055523#1 396055523#1.42 396055523#1.177 396055523#1.183 396055523#5 396055523#5.8 396055523#5.42 396055523#7 396055523#7.122 243349944#10 243349944#10.7 243349944#10.84 6360256#8 6360256#8.125 6360256#10 6360256#10.7 6360256#10.57 6360256#10.71 6360256#10.113 6360256#10.122 6360256#10.124 361784407#0 361784407#0.8 361784407#0.38 361784407#0.53 22917113#8 22917113#8.9 22917113#8.12 22917113#8.134 6448612#0 6448612#0.9 6463035#3 6495801#1 170683665#0 170683665#0.4 170683665#0.48 170683665#0.50 -6356676#1 6463035#7 -279467136#0 -279467136#0.18 -279467136#0.24 -243349942#2 -243349942#1 -243349942#1.104 -243349942#0 -243349942#0.28 -22760521#3 -22760521#2 -22760521#2.81 -22760521#2.121 428246847#0 428246847#0.8 428246847#0.22 6386110#0 6386110#0.16 6386110#0.25 6386110#0.55 -243349338#6 -243349338#6.14"/>
</vehicle>
<vehicle id = "veh6" type= "veh_passenger" depart="3605" >
<route edges =" -6522868 -6403883#7 -6323849#4 -6323849#4.14 -6323849#4.28 -6323849#4.52 -6323849#4.61 -6323849#4.72 -160552467#11 -160552467#11.13 -160552467#11.23 -160552467#11.33 -160552467#11.44 -160552467#11.54 -160552467#11.62 -160552467#11.70 -160552467#11.80 -160552467#11.88 -160552467#11.115 -160552467#11.127 -8071379#3 -8071379#3.41 -8071379#1 -8071379#1.46 6346524#4 6346524#4.124 6346524#4.138 -263668130#0 -6523130 -6400858#1 -6400858#1.92 -6400858#1.135 -6400858#1.139 -6400858#1.143 -6400858#1.147 -158882561#3 -158882561#2 -158882561#2.11 -158882561#2.28 -158882561#2.46 -158882561#2.60 158882511#0 158882511#1 158882511#1.35 -6346524#2 158882517#2 -6411908#3 158882505#4 158882505#4.31 158882505#6 -6403883#1 -171739214#17 -171739214#17.19 -171739214#17.44 -160552467#5 -160552467#5.18 -160552467#5.25 -160552467#5.30 -160552467#5.63 -160552467#5.85 337668916#8 337668916#8.47 337668916#10 337668916#11 337668916#11.20 337668916#11.35 8071899 6457203#0 6457203#1 6457203#1.8 6457203#1.16 6457203#1.38 6457203#1.55 -158882505#8 6469837#2 158882517#6 158882517#6.46 158882517#6.66 158882517#6.67 158882517#6.69 158882517#6.71 158882517#6.73 8111708#0 8111708#0.2 8111708#0.5 8111708#0.7 8111708#0.9 8111708#0.12 8111708#0.14 8111708#0.45 8111708#0.50 -6505136#13 -6505136#13.115 -6505136#12 -6505136#12.73 -6505136#12.84 -6505136#12.102 -6505136#12.111 -6505136#12.122 -6505136#6 -6505136#6.18 -6505136#4 -6505136#4.10 -6505136#4.42 -6505136#4.55 -6505136#4.101 -6505136#4.110 292812445#3 292812445#3.49 6464042#0 6464042#0.76 6464042#2 6464042#2.9 6464042#3 6464042#3.16 6464042#3.33 6464042#3.50 6464042#3.56 8111709#4 8111709#4.49 6513783#6 37657905#3 37657905#3.48 -6381494#8 -6381494#8.122 -6381494#8.124 -6381494#6 -6381494#6.57 -6381494#6.77 -6381494#6.94 -6381494#3 -6381494#3.43 6463017#6 6463017#6.48 -6386837#0 337739268 337739268.124 337739267#0 337818462 337818462.3 337818462.6 337739271#1 337739271#1.6 337739269#0 -460419011#4 243349944#8 243349944#9 396055523#9 396055523#9.6 396055523#9.20 396055523#9.54 396055523#11 396055523#11.17 396055523#11.23 396055523#11.42 396055523#11.62 396055523#11.85 396055523#11.96 396055523#11.121 460419028#0 460419028#0.11 460419028#0.49 460419028#0.79 460419028#0.95 460419028#3 460419028#4 460419028#5 460419028#5.67 460419028#5.79 460419028#5.105 460419024#0 460419024#0.9 460419024#0.19 460419024#0.34 460419024#0.53 460419024#0.102 -6425675 -6380913#12 460419008#2 460419008#2.37 460419008#2.41 460419008#2.47 460419008#2.65 6516509#0 6516509#0.7 6516509#0.30 6516509#0.46 6516509#0.66 6516509#0.90 6516509#0.105 6516509#0.109 -6463536#1 -6463536#1.10 -6463536#1.11 -6463536#1.22 -6463536#1.32 -6463536#1.39 -6463536#1.43 -6463536#1.50 -6463536#1.60 -6463536#1.69 -6380913#7 -6380913#7.22 6467507#8 6467507#8.87 6467507#10 6467507#10.9 6467507#10.76 6467507#10.86 6467507#13 6467507#13.11 185485118#0 185485118#0.64 185485118#0.103 185485118#0.149 6514312#0 6514312#0.70 185485132#0 185485132#0.7 481291012#2 481291012#2.49 481291012#5 481291012#5.49 6498476 6498476.121 6498476.127 6498476.134 926425193#1 926425193#1.12 926425193#1.24 926425193#1.34 -926425191#2 -6494970#6 -6494970#6.6 -185485127#1 -6523501#4 -6523501#4.175 -169917351#21 -169917351#21.6 -169917351#21.71 -6452520#2 -6452520#2.4 -6452520#2.101 460421482#0 460421482#0.8 460421482#0.73 460421482#3 460421482#3.8 460421482#3.48 460421482#3.55 460421482#3.72 6358721#0 6358721#0.9 6415147#4 428247193#3 428247193#3.27 486632638#0 486632638#0.14 486632638#0.27 256996977#0 256996977#0.9 256996977#0.40 6391682#0 6391682#0.62 6507813#0 6507813#1 6507813#1.41 6507813#1.49 6501822#2 -185485127#9 -185485127#9.41 -185485127#9.47 6472293#3 185485117#1 -6501822#4 6463541#0 -6396312#1 -6396312#0 -6507818#0 -6501822#0 -6501822#0.165 6354836#0 6354836#0.6 6354836#1 6354836#1.40 -642753173 6351349#3 6351349#3.107 256997441#6 256997441#6.46 6354836#4 6354836#5 6354836#5.54 6354836#7 6354836#7.92 6467368#4 6354794#0 6354794#1 6354794#1.121 -6496652#8 -6496652#8.7 -6496652#6 -6367253#4 -6367253#4.7 -6367253#4.119 -6367253#1 -6367253#1.137 -6467368#2 -661086629#2 -661086629#2.7 -661086629#0 -185483733 -6414318#4 -157167355#0"/>
</vehicle>
<vehicle id = "veh7" type= "veh_passenger" depart="3605" >
<route edges =" 817434294 817434294.10 817434294.36 817434294.44 817434294.63 817434294.119 816616072#4 816616072#4.7 816616072#4.62 816616072#4.121 6430729#0 6430729#0.7 6430729#0.86 6430729#3 6430729#3.9 6430729#3.48 -620762212#3 -620762212#2 -620762212#2.76 -620762212#2.120 57883609#0 57883609#0.6 57883609#0.57 65588100#0 65588100#0.63 6343949#7 6343949#8 6343949#8.52 6343949#10 6343949#10.49 6343949#12 6343949#12.47 525497324#4 525497324#4.15 525497324#4.73 525497324#4.88 525497324#8 6513783#0 6513783#1 6513783#1.64 6463017#5 -6381494#1 -6381494#0 -620762224#1 -620762224#0 -66558981#7 -66558981#7.65 -66558981#7.83 -66558981#7.105 -66558981#7.123 -243349944#5 -243349944#5.51 -525497324#1 -525497324#0 -179552126 -179552126.19 -179552126.34 -179552126.50 -179552126.90 -6440371#11 -6440371#11.12 -6440371#11.144 -6440371#8 -6440371#8.7 -6440371#8.122 -6440371#8.124 -6440371#8.125 6464138#8 6464138#8.7 6464138#8.49 6464138#8.88 -6512920#5 -6512920#5.6 -6512920#5.9 -6512920#5.119 -6512920#5.124 -353690154#11 -353690154#11.4 -353690154#11.46 -353690154#11.54 -353690154#11.89 -6440371#2 -6440371#2.9 -6440371#2.11 -6440371#2.121 -6440371#2.122 -460419029#8 -460419029#8.7 -460419029#8.46 -460419029#8.90 -460419029#4 -460419029#4.8 -460419029#4.44 -460419029#4.46 -460419029#4.90 -353690149#3 -353690149#3.9 -353690149#3.73 -353690149#3.196 353690160#0 353690160#0.6 353690160#0.88 353690160#3 353690160#3.6 353690160#3.90 -876005345#4 -876005345#4.10 -876005345#4.11 -876005345#4.20 -876005345#4.33 -876005345#4.199 901474741#0 901474741#0.6 901474741#0.85 901474741#0.87 512168130#0 512168130#0.7 512168130#0.140 512168130#0.193 512168130#0.195 901419468#0 901419468#0.8 901419468#0.10 901419468#0.19 901419468#0.42 901419468#0.73 901419468#0.154 486874837#0 6481166#9 6481166#9.121 353690154#15 353690154#15.50 243339793#0 243339793#0.48 243339793#2 243339793#2.49 -801995082 -460419013#1 -460419013#1.44 -486874837#3 -486874837#3.48 -6447971#9 -6447971#8 -6447971#7 6463532#0 6463532#0.49 -6515975#7 6467507#6 6467507#6.51 -6380913#5 6507809#7 6507809#7.46 6507809#7.87 6507809#10 6507809#10.8 6507809#10.91 6507809#13 6507809#13.9 6507809#13.77 -6452520#5 -6452520#5.4 -6452520#5.85 -169917351#18 -169917351#18.7 -169917351#18.75 -169917351#15 -169917351#15.9 -169917351#15.56 -169917351#15.89 -169917351#11 -169917351#11.10 -169917351#11.50 -6380913#3 -6380913#3.7 -6380913#3.66 -6380913#3.103 256996975#0 256996975#0.50 256996975#0.62 256996975#0.65 256996975#0.91 6461236#0 6461236#0.9 6461236#0.24 6461236#0.44 6461236#0.58 6461236#0.60 6384260#3 6384260#3.54 -6487445#4 -6487445#4.15 -6487445#4.55 -6487445#1 -6487445#1.78 256996976#3 256996976#3.7 256996976#3.76 6449462#0 6449462#0.9 6449462#0.46 6415147#2 6497081#2 6497081#2.38 6497081#2.47 6497081#2.53 6497081#2.60 6497081#2.67 6497081#2.70 6497081#2.74 6497081#2.81 6497081#2.120 6497081#6 6497081#6.44 -6414318#2 -6414318#2.8 795669782#2 6371720#2 6497081#9 6497081#9.126 369455641#1 369455641#1.28 369455641#1.78 -512126023#7 -512126023#7.8 -512126023#7.19 -512126023#7.31 -512126023#7.44 -512126023#7.91 -512126023#7.107 -512126023#7.111 -512126023#7.245 -512126023#2 -512126023#2.37 -512126023#2.47 6513107#0 6513107#0.9 6513107#0.116 6513107#0.121 6433087#0 6433087#0.4 6433087#0.9 -754699003#6 -754699003#6.36 -6351337#5 -6351337#5.5 -6351337#5.8 -6351337#5.119 -6351337#2 -6351337#2.7 -6351337#0 -6467368#0 -185483738#2 -185483738#2.93 -6371720#5 -6371720#5.41 157167355#0"/>
</vehicle>
<vehicle id = "veh8" type= "veh_passenger" depart="7210" >
<route edges =" -814326475#2 -814326475#2.9 -814326475#2.24 -814326475#2.41 -814326475#2.70 -814326475#2.91 -6456052#5 -6456052#5.10 -6456052#5.36 -6456052#5.120 428341734#0 428341734#0.10 428341734#0.39 428341734#0.88 428341734#4 428341734#4.8 428246439#0 428246439#0.14 -569505978#1 -569505978#1.10 -569505979 -569505979.32 -569505979.79 -395714916#1 -395714916#1.12 -568043367 -568043367.41 -568043367.79 893866065#0 893866065#0.10 893866065#0.66 893866065#0.92 893866065#3 893866065#3.6 893866065#3.48 893866065#3.88 353690148#7 353690148#7.6 353690148#7.111 353690148#7.136 353690148#7.137 353690148#7.139 353690148#7.142 -164418944#3 -164418944#3.9 -164418944#3.15 -164418944#3.30 -164418944#3.35 -395933841 65588077#0 65588077#0.3 65588077#0.5 65588077#0.8 65588077#0.11 65588077#0.15 65588077#0.17 65588077#0.22 65588077#0.41 65588081#0 65588081#0.10 65588081#0.46 65588081#0.67 65588081#0.75 800744530#0 800744530#0.11 800744530#0.45 800744530#0.57 800744530#0.111 800744530#0.121 620762212#0 620762212#0.8 620762212#0.52 620762212#3 620762212#4 620762212#4.122 171739207#2 171739207#2.46 -65588100#6 -65588100#6.7 -65588100#4 -65588100#4.73 -65588100#4.110 -65588100#1 -65588100#1.65 -826314455#3 -826314455#3.64 -826314455#3.71 -826314455#3.76 -826314455#3.90 -826314455#3.118 825336588#0 825336588#0.7 349901822#2 349901822#2.21 -620762214 179551719 179551719.37 179551719.46 179551719.51 179551719.88 179551719.93 179551719.97 739843348#0 739843348#0.4 739843348#0.9 620762218#0 620762218#0.55 620762218#0.66 620762218#0.68 620762218#0.81 6440348#8 6440348#8.12 6440348#8.47 6440348#8.88 6440348#8.91 6440348#11 6440348#11.4 6440348#11.7 6440348#11.62 6440348#11.73 6430729#15 6430729#15.48 -525497324#7 -525497324#7.39 -525497324#7.54 -525497324#7.112 -525497324#3 -525497324#2 243349944#4 243349944#4.53 243349944#6 -481291488#4 -481291488#4.47 40416132#0 40416132#0.19 -460419011#2 6464126#3 6464126#3.49 6464126#5 -460419028#3 243349338#0 243349338#0.18 -6360256#3 -6360256#3.44 6464126#7 6464126#7.50 6464126#9 6464126#9.46 185485132#4 243349338#3 243349338#3.49 243349338#5"/>
</vehicle>
<vehicle id = "veh9" type= "veh_passenger" depart="7210" >
<route edges =" -6457203#16 -6457203#16.59 -6457203#15 -6457203#15.22 -6457203#14 -6457203#14.67 -6457203#13 -6457203#13.26 8111707#0 8111707#0.47 8111707#2 8111707#2.47 -603522174#1 -603522174#0 603522173#0 603522173#0.48 6513783#10 6513783#11 6513783#11.206 656838750 656838751 392673856 392673856.85 6434058#0 6434058#0.15 6434058#0.33 6434058#0.56 6434058#0.73 6434058#0.96 6434058#0.116 6434058#0.128 6386823 6386823.80 620762209 620762209.13 620762209.35 157279815 157279815.13 157279815.26 157279815.36 157279815.46 157279815.52 157279815.62 157279815.72 157279815.79 -6444679 481291021#1 -6383185#18 -6383185#18.50 -6383185#18.92 -481291020#5 -481291020#5.43 -481291020#5.65 -481291016 -476409334#1 -476409334#0 -263666867#4 -263666867#4.46 638348588#0 638348588#1 -945555824#3 -945555824#3.44 -6381494#16 -6381494#15 -6381494#14 -6381494#14.47 -6381494#14.172 -6368504#11 -6368504#11.50 -6368504#11.52 -6513783#8 -170683231#20 -170683231#20.51 -170683231#18 -170683231#18.37 -170683231#18.49 -170683231#15 -170683231#15.34 -170683231#15.47 -170683231#15.61 -170683231#11 -170683231#11.43 -170683231#9 -170683231#9.43 -170683231#7 -65588097#5 -65588097#5.172 -6464374 -6460085#3 -6460085#3.55 -6460085#1 -6460085#1.27 -6460085#1.86 -6460085#1.119 460399791#0 460399791#0.9 460399791#0.31 460399791#0.97 460399791#0.99 92170540#0 92170540#0.10 243334881#0 243334881#0.7 243334881#0.57 243334881#0.96 6486416#0 6486416#0.9 6486416#0.116 460421484#0 460421484#0.12 6463035#0 6463035#0.14 6463035#0.38 -6448612#1 -6448612#1.133 805680044#5 805680044#5.6 805680044#5.49 -185485132#12 -185485132#12.125 -185485132#11 -185485132#11.16 -243349945#8 -243349945#8.11 -243349945#8.51 -243349945#5 -243349945#5.47 -243349945#5.52 -243349945#5.91 -6360256#9 -6360256#9.6 243349944#13 243349944#13.47 243349944#13.51 243349944#15 243349944#15.48 243349944#17 243349944#17.50 243349944#19 243349944#19.47 243349944#21 243349944#21.48 243349944#23 243349944#23.46 160624558#1 -243349945#16 -243349945#16.50 -243349945#14 -243349945#14.50 243349942#1 243349942#1.25 -805658294#3 -805658294#3.49 6494975#10 6494975#10.11 6494975#10.19 6356676#0 -6463035#6 -6463035#6.50 -6463035#6.52 6495801#1 170683665#0 170683665#0.4 170683665#0.48 170683665#0.50 6356676#2 6356676#2.67 6356676#2.82 6356676#2.92 6349021#0 6349021#1 6349021#1.39 -40416127#2 -40416127#2.7 -40416127#2.26 -279467136#3 -279467136#3.77 -279467136#3.101 170683665#5 170683665#5.50 -6349133#1 6463035#10 6463035#10.48 6463035#12 6463035#12.7 6521828#4 243352868#0 243352868#0.109 40416130#6 -6369950#3 -6369950#2 -6369950#2.24 -6369950#0 -336908262#6 -359671039#10 -359671039#10.86 -359671039#8 -359671039#8.55 243349945#18 532125609#3 808266757#0 808266757#0.7 -352434874#3 243349945#20 -263665040#2 -263665040#2.22 243349944#29 -243349941#10 -243349941#10.85 -243349941#8 878126486#0 878126486#0.41 878126486#0.73 878126486#0.75 460419010 460419010.7 460419010.24 -6447445#17 -6447445#16 -532125609#0 -6449970#12 -243349338#10 359671039#3 359671039#4 359671039#4.117 -6447445#14 -6447445#13 -6447445#13.40 -6447445#11 -6447445#10 -6447445#10.48 -6447445#8 -6447445#8.50 -185485132#8 -185485132#8.81 256994205#2 256994205#2.24 256994205#2.72 256994205#3 428246847#0 428246847#0.8 428246847#0.22 6386110#0 6386110#0.16 6386110#0.25 6386110#0.55 -243349338#6 -243349338#6.14"/>
</vehicle>
<vehicle id = "veh10" type= "veh_passenger" depart="7210" >
<route edges =" -6522868 6403883#8 -6428544#15 -6428544#15.8 -6428544#13 -6428544#12 -6428544#12.50 -6428544#10 -6428544#10.8 -6428544#10.15 -6428544#10.34 -6428544#10.40 -6428544#10.45 -6428544#10.52 -337099385#1 -337099385#0 -337099385#0.153 -337099385#0.159 -6368665#5 -6368665#5.9 -6368665#5.17 -6368665#5.26 -6368665#5.35 -6368665#5.53 158882511#1 158882511#1.35 158882511#3 6411908#5 6411908#5.89 6411908#5.98 6411908#5.108 8071379#2 8071379#2.41 -160552467#10 -160552467#10.17 -160552467#10.28 -160552467#10.38 158882511#5 158882511#5.46 158882511#5.58 158882511#8 -6469837#3 -6469837#2 158882505#8 -6457203#3 -6457203#3.34 -6457203#3.51 -6457203#3.73 -6457203#3.81 -6457203#0 6384359#0 6384359#0.22 6384359#0.45 6384359#0.50 -6505136#6 -6505136#6.18 6463017#0 6463017#0.48 6463017#2 6463017#2.44 6463017#2.48 6513783#2 6513783#2.8 6513783#2.46 6513783#2.65 6513783#2.68 6513783#5 6513783#6 37657905#3 37657905#3.48 -6381494#8 -6381494#8.122 -6381494#8.124 -6381494#6 -6381494#6.57 -6381494#6.77 -6381494#6.94 -6381494#3 -6381494#3.43 6463017#6 6463017#6.48 6386837#1 8071897#0 8071897#0.89 8071925#0 8071925#0.9 8071925#0.55 -6383185#2 -6383185#2.45 -6383185#2.115 -737709039#1 -737709039#1.40 -737709039#1.45 -343521145#3 -343521145#3.32 -343521145#3.66 -343521145#3.101 -343521145#3.142 -343521145#3.155 337739267#0 337739267#1 337739271#0 337739271#0.10 337739271#0.13 337739271#1 337739271#1.6 337739269#0 -460419011#4 243349944#8 -801995081#5 -801995081#5.197 -801995081#5.209 -801995081#2 -801995081#2.109 -6464126#4 -6464126#4.47 -460419011#1 -460419011#1.97 -460419011#0 -460419011#0.11 460419013#0 460419013#0.51 481291014#0 481291014#0.53 353690153#0 353690153#0.8 353690153#0.25 353690153#0.87 6360256#0 6360256#0.104 243339793#6 243339793#6.50 243339793#6.74 -22917112 481291012#0 481291012#0.24 481291012#0.32 185485132#2 185485132#2.104 185485132#3 185485132#3.10 6464126#11 6464126#11.50 -6494975#1 -6494975#1.103 243339793#13 243339793#13.49 6386110#5 6386110#5.80 428246845 8071924#0 8071924#0.13 8071924#1 8071924#1.18 8071924#1.30 6472293#6 6472293#6.106 795671506#0 795671506#0.46 6501822#9 6501822#9.6 6336174#0 6336174#0.42 6336174#2 6336174#2.43 6336174#4 6336174#5 -243349331#0 -243349331#0.131 -259277920#2 -259277920#2.56 -259277920#1 -6449970#7 -6449970#7.42 6425683#0 -6506505#2 -6463541#4 -6463541#4.39 -6463541#4.42 -6463541#1 -6396312#1 -6396312#0 -6507818#0 6501822#1 6501822#2 -185485127#9 -185485127#9.41 -185485127#9.47 -6472293#2 -6507813#0 6391682#2 6391682#2.12 6391682#2.24 6391682#2.34 6391682#2.45 -185485127#5 -185485127#5.56 336908264#2 336908264#2.29 -169917351#27 -169917351#27.11 -169917351#27.76 -6494970#2 -6494970#2.4 -6494970#2.100 6358721#0 6358721#0.9 6415147#4 6415147#5 6415147#6 6415147#7 6415147#8 620762211#1 620762211#1.10 620762211#1.36 620762211#1.73 620762211#1.115 620762211#1.170 620762211#1.178 -256997441#8 -256997441#8.6 6354836#4 6354836#5 6354836#5.54 6354836#7 6354836#7.92 6467368#4 6354794#0 -6485999#4 -6485999#4.7 -6485999#2 -6351337#0 -661086629#2 -661086629#2.7 -661086629#0 -185483733 -6414318#4 -157167355#0"/>
</vehicle>
<vehicle id = "veh11" type= "veh_passenger" depart="7210" >
<route edges =" -813722269#3 -813722269#3.7 -813722269#3.48 -813722269#3.84 -813722269#3.86 569505974#0 569505974#0.10 569505974#0.37 816616073#0 816616073#0.78 813722270#0 813722270#0.7 813722270#0.42 813722270#0.74 813722270#0.75 813722270#0.121 -6430729#2 -6430729#2.11 -6430729#2.90 816616072#8 816616072#8.6 816616072#8.121 6346526#0 6346526#0.6 6346526#0.99 6346526#0.121 -337668916#3 -337668916#3.10 -337668916#3.49 -337668916#3.92 -6463013#2 -6463013#2.8 -6463013#2.38 -6463013#2.42 -6463013#2.60 -6463013#2.70 -6463013#2.90 428246435#0 428246435#0.10 428246433 428246433.72 428246432#0 428246432#0.13 171739214#8 8071890#0 8071890#0.56 621283351#0 621283351#0.54 621283351#0.62 6464391#0 6464391#0.12 6464391#0.77 6464391#3 6464391#3.6 6464391#3.75 6464391#6 6464391#6.5 6464391#6.66 6374789#9 6374789#9.6 6374789#11 6374789#11.72 -6346308#5 -6346308#5.48 -6346308#3 -6346308#3.49 -6346308#1 -6346308#1.49 6508650#4 6508650#4.89 6508650#4.91 6368518#0 6368518#0.1 6368518#0.3 6368518#0.50 -6366765#3 -6366765#3.66 -6366765#3.80 -6366765#3.121 -6366765#3.190 -6366765#3.194 -6366765#3.197 -6366765#3.201 -6366765#3.204 -51476458 -621088606#1 -621088606#0 -621088607#1 6348400#0 -215404534#1 6479772#0 6479772#0.6 95193144#0 95193144#0.1 95193144#0.37 95193144#0.41 6479772#3 6479772#3.115 6479772#3.120 6428544#0 6428544#0.6 6428544#0.11 6428544#1 6428544#2 6428544#2.6 6428544#4 -8071381#1 -8071381#1.135 -8071895#1 -8071895#0 -6358515#0 8071894#1 8071894#2 8071894#3 8071894#4 -6470834 -6470834.4 -6470834.8 -6470834.12 -428098986 -428098986.2 -428098986.6 -428314467 -428314467.16 -428314460 -428098985#1 -428098985#1.1 621283354 158882511#0 -6368665#4 -6368665#4.121 158882517#1 158882517#2 -6411908#3 -6411908#2 -6411908#2.56 171739214#14 160552467#6 160552467#6.15 160552467#6.20 160552467#6.50 160552467#8 158882517#4 -6403883#2 -6403883#1 -6403874#2 -6403874#2.90 -6403874#0 171739207#4 171739207#4.40 171739207#4.43 171739207#4.47 171739207#4.50 171739207#4.52 171739207#4.54 171739207#4.77 171739207#4.80 171739207#4.82 171739207#4.85 171739207#4.87 171739207#4.90 171739207#4.113 292812445#0 292812445#0.35 292812445#0.50 292812445#3 292812445#3.49 292812445#5 292812445#5.45 6513783#0 962517344 962517344.33 -6381494#0 -620762224#1 -620762224#0 -66558981#7 -66558981#7.65 -66558981#7.83 -66558981#7.105 -66558981#7.123 -66558981#2 -66558981#2.131 -66558981#2.234 -6481166#12 -6481166#11 -6481166#11.122 -6481166#11.125 6464138#14 -481291488#1 -481291488#0 -481291488#0.69 -481291488#0.82 -6447971#10 -6447971#10.11 -486874837#1 -6481166#8 -6481166#8.162 263669069#0 -6447971#7 -6447971#6 -6467507#3 -6467507#2 -6467507#2.10 -6467507#2.91 -901474742#2 -901474742#2.5 -901474742#2.43 -901474742#2.83 -901474739#9 -901474739#9.9 -901474739#9.83 6440364#7 6440364#7.7 6440364#7.83 -876005346#6 -876005346#6.6 -876005346#6.69 -876005346#3 22917111#0 22917111#0.7 22917111#0.195 -353690160#2 -353690160#2.8 -353690160#2.90 -893868546#2 -893868546#2.10 -893868546#2.197 -893868547#2 -893868547#2.8 -893868547#2.91 -6476327#10 -6476327#10.8 -6476327#10.86 893868549#12 893868549#12.7 893868549#12.90 -893868550#2 -893868550#2.7 -893868550#2.86 901477545#0 901477545#0.8 901477545#0.89 901477545#4 901477545#4.7 901477545#4.69 901477545#7 901477545#7.5 901477545#7.83 169917351#0 169917351#0.8 169917351#0.53 169917351#0.88 6481166#4 6507809#3 -6447971#4 -6447971#3 -6447971#3.29 -6447971#3.37 -6447971#3.61 881403606#0 881403606#0.12 881403606#0.42 881403606#0.83 881403606#0.85 22917665#0 22917665#0.7 -6445835#1 -6445835#1.53 6515975#0 6515975#0.8 6515975#0.67 6515975#0.104 6515975#4 6515975#4.43 6507809#5 6507809#5.51 6507809#7 6507809#7.46 6507809#7.87 6516509#11 6516509#11.6 6516509#11.34 6516509#11.86 169917351#12 169917351#12.9 169917351#12.42 169917351#12.90 -6360239#3 -6360239#3.6 -6360239#3.69 -6360239#3.102 256996976#3 256996976#3.7 256996976#3.76 460421482#0 460421482#0.8 460421482#0.73 6497081#0 6497081#0.8 -6415147#2 6449462#3 6449462#3.7 6449462#3.50 6449462#3.60 6449462#3.72 6449462#3.87 795669782#0 795669782#0.54 -6414318#0 -6414318#0.76 -6414318#0.81 460418987#0 460418987#0.4 460418987#0.8 460418987#1 460418987#2 460418987#3 460418987#3.91 22917667#0 22917667#0.7 22917667#0.103 22917667#3 22917667#3.6 22917673#5 22917673#5.15 22917673#5.76 -795846818#7 -795846818#7.6 -795846818#7.174 22917670#10 22917670#10.5 22917670#10.34 481291010#3 481291010#3.6 481291010#3.100 -460418978#4 -460418978#4.28 -460418978#4.69 -795846818#1 -795846818#1.9 -795669782#3 6371720#2 6371720#3 157167355#0"/>
</vehicle>
<vehicle id = "veh12" type= "veh_passenger" depart="10815" >
<route edges =" -813722269#3 -813722269#3.7 -813722269#3.48 -813722269#3.84 -813722269#3.86 620762213#0 620762213#0.9 620762213#0.88 620762212#0 620762212#0.8 620762212#0.52 6343949#6 65588100#2 65588100#2.20 65588100#2.57 -6430729#8 -6430729#8.48 -6430729#8.49 -6430729#5 -6430729#5.49 -6430729#5.89 -6430729#2 -6430729#2.11 -6430729#2.90 816616072#8 816616072#8.6 816616072#8.121 6346526#0 6346526#0.6 6346526#0.99 6346526#0.121 6346526#4 6346526#4.7 -171739214#11 -171739214#10 -171739214#9 8071890#0 8071890#0.56 158882505#0 158882505#0.42 158882505#2 -6346524#0 171739214#13 171739214#14 -160552467#5 -160552467#5.18 -160552467#5.25 -160552467#5.30 -160552467#5.63 -160552467#5.85 -160552467#0 171739207#2 171739207#2.46 6403874#0 6403874#1 6403874#1.38 6403883#1 158882505#7 -6469837#1 -6469837#1.51 171739214#21 171739214#21.8 171739214#21.28 171739214#21.32 6457203#1 6457203#1.8 6457203#1.16 6457203#1.38 6457203#1.55 8111709#0 8111709#0.47 -6505136#12 -6505136#12.73 -6505136#12.84 -6505136#12.102 -6505136#12.111 -6505136#12.122 -6505136#6 -6505136#6.18 -6505136#4 -6505136#4.10 -6505136#4.42 -6505136#4.55 -6505136#4.101 -6505136#4.110 -292812445#2 -292812445#2.48 -292812445#2.63 8071898#0 8071898#0.8 8071898#0.10 8071898#0.26 8071898#0.40 6430729#11 6430729#11.51 6430729#13 6430729#13.48 6430729#15 6430729#15.48 525497324#8 292812445#7 292812445#7.46 -620762224#1 -620762224#0 -620762218#5 -620762218#5.44 -620762218#5.106 -525497324#2 243349944#4 243349944#4.53 243349944#6 243349944#7 243349944#8 243349944#9 396055523#9 396055523#9.6 396055523#9.20 396055523#9.54 6447445#0 6447445#0.8 6447445#0.87 6447445#3 6447445#3.51 22917113#5 22917113#6 243349945#6 243349945#6.48 243349945#6.88 185485132#11 185485132#11.115 185485132#12 185485132#12.17 805680044#8 805680044#8.47 805680044#10 -243349942#2 -243349942#1 -243349942#1.104 -243349945#12 -243349945#12.49 -6494975#8 -6494975#7 -6494975#6 -6494975#6.81 256994205#3 428246847#0 428246847#0.8 428246847#0.22 6386110#0 6386110#0.16 6386110#0.25 6386110#0.55 -243349338#6 -243349338#6.14"/>
</vehicle>
<vehicle id = "veh13" type= "veh_passenger" depart="10815" >
<route edges =" -816616074#1 -816616074#1.10 -816616074#1.14 -816616074#1.119 428341734#4 428341734#4.8 428246439#0 428246439#0.14 428246438#0 428246438#0.8 428246440#0 428246440#0.62 800744530#0 800744530#0.11 800744530#0.45 800744530#0.57 800744530#0.111 800744530#0.121 57883609#0 57883609#0.6 57883609#0.57 -826314455#3 -826314455#3.64 -826314455#3.71 -826314455#3.76 -826314455#3.90 -826314455#3.118 -349901821 -6476313#2 -6476313#2.11 -6476313#2.29 -6476313#2.98 -6476313#2.99 -6476313#2.103 -6476313#2.107 164418944#4 164418944#4.7 164418944#4.8 164418944#4.29 164418944#4.51 164418944#4.95 -353690150#2 -353690150#2.8 -353690150#2.144 293775902#0 293775902#0.7 293775902#0.52 293775902#0.90 293775902#4 293775902#4.6 293775902#4.49 293775902#4.88 293775902#8 293775902#8.6 293775902#8.49 293775902#8.91 6512920#8 6512920#8.4 6512920#8.74 6512920#8.89 6512920#8.101 6512920#8.139 525497323#0 525497323#0.50 -6481166#12 -6481166#11 -6481166#11.122 -6481166#11.125 6464138#14 -481291488#1 6464126#0 6464126#0.46 6464126#0.49 6464126#3 6464126#3.49 6464126#5 460419028#4 243339793#5 6360256#1 6360256#1.7 6360256#2 6360256#2.128 6360256#4 256994205#0 256994205#0.67 -22917113#3 -22917113#2 -22917113#1 -22917113#1.55 -22917112 -185485118#1 6514312#0 6514312#0.70 926425191#0 926425191#0.5 926425191#2 -926425193#1 -926425193#1.9 -926425193#1.20 -926425193#1.31 -926425193#0 -926425193#0.24 -926425193#0.35 -926425193#0.76 -926425193#0.112 -428246846 -428246846.4 -428246846.17 -428246846.29 8071924#0 8071924#0.13 8071924#1 8071924#1.18 8071924#1.30 6472293#6 6472293#6.106 -243339793#16 -243339793#16.49 -6386110#4 -6386110#4.86 -6464126#14 -6464126#14.50 6494975#2 243349338#5"/>
</vehicle>
<vehicle id = "veh14" type= "veh_passenger" depart="10815" >
<route edges =" 817434294 817434294.10 817434294.36 817434294.44 817434294.63 817434294.119 6343949#0 6343949#0.7 6343949#0.86 -816616073#1 -816616073#1.7 -569505974#1 -569505974#1.6 -569505974#1.33 -569505976#2 -569505976#2.9 -569505976#2.88 -569505976#2.115 -569505976#2.119 -569505978#1 -569505978#1.10 -569505979 -569505979.32 -569505979.79 -395714916#1 -395714916#1.12 -568043367 -568043367.41 -568043367.79 893866065#0 893866065#0.10 893866065#0.66 893866065#0.92 -243338979#25 -243338979#25.8 -243338979#25.64 -243338979#25.77 -243338979#25.120 -243338979#20 -243338979#20.7 -243338979#20.121 353690157#0 353690157#0.5 353690157#0.19 353690157#0.47 353690157#0.72 353690157#0.87 893866056#0 893866056#0.8 893866056#0.64 893866056#0.88 893866059#0 893866059#0.8 893866059#0.9 893866059#0.122 6464138#0 6464138#0.7 6464138#0.53 6464138#0.92 -22917111#16 -22917111#16.4 -22917111#16.5 -22917111#16.7 -22917111#16.120 -22917111#16.122 -22917111#13 -22917111#13.8 -22917111#13.10 -22917111#13.79 -22917111#13.80 -22917111#13.98 -22917111#13.123 460419029#5 460419029#5.8 460419029#5.52 460419029#5.91 460419029#9 460419029#9.7 460419029#9.45 -901419468#4 -901419468#4.51 -901419468#4.132 -901419468#4.164 -901419468#4.186 -901419468#4.196 -901419468#4.197 465971499#0 465971499#0.6 6481166#7 6481166#7.43 6481166#9 6481166#9.121 353690154#15 353690154#15.50 243339793#0 243339793#0.48 243339793#2 243339793#2.49 243339793#4 460419028#5 460419028#5.67 460419028#5.79 460419028#5.105 460419024#0 460419024#0.9 460419024#0.19 460419024#0.34 460419024#0.53 460419024#0.102 -6425675 -6380913#12 -460419008#1 -460419008#1.44 -6515975#8 -6515975#7 -6515975#6 6507809#5 6507809#5.51 -6380913#4 169917351#9 169917351#9.48 169917351#9.87 169917351#12 169917351#12.9 169917351#12.42 169917351#12.90 6360239#4 6360239#4.5 6360239#4.44 6360239#4.86 6507809#13 6507809#13.9 6507809#13.77 6452520#6 6452520#6.7 185485127#0 -6523501#4 -6523501#4.175 -169917351#21 -169917351#21.6 -169917351#21.71 -6452520#2 -6452520#2.4 -6452520#2.101 6449462#0 6449462#0.9 6449462#0.46 6449462#3 6449462#3.7 6449462#3.50 6449462#3.60 6449462#3.72 6449462#3.87 795669781 795669781.52 795669781.56 6497081#6 6497081#6.44 -6414318#2 -6414318#2.8 795669782#2 6371720#2 6371720#3 157167355#0"/>
</vehicle>
<vehicle id = "veh15" type= "veh_passenger" depart="10815" >
<route edges =" -814326475#2 -814326475#2.9 -814326475#2.24 -814326475#2.41 -814326475#2.70 -814326475#2.91 -6456052#5 -6456052#5.10 -6456052#5.36 -6456052#5.120 -6456052#1 -6456052#1.10 -6456052#1.62 -607691082#1 -607691082#0 -6475815#3 -6475815#3.2 -6475815#3.17 -6475815#3.46 -428089348#3 -428089348#3.15 -428089348#3.21 -428089348#3.28 332223491#0 332223491#0.12 6438604#0 6438604#0.3 6438604#0.6 6438604#0.8 6438604#0.10 6438604#0.11 6438604#0.13 6438604#0.44 6438604#0.60 -22927969#14 -22927969#14.8 -22927969#14.47 -22927969#14.89 -22927969#10 -22927969#10.10 -22927969#10.51 -22927969#10.91 -6511397#3 -6511397#3.9 -6511397#3.38 -6511397#3.82 -428227812#1 -428227812#1.9 -428227851#1 -428227851#1.5 -13726934#1 -13726934#1.5 -428227808 -428227847#1 -428227847#1.17 -749622503#15 -749622503#15.9 -749622503#15.31 -749622503#15.46 -749622503#15.51 -749622503#15.67 -749622503#15.85 -749622503#8 -749622503#8.7 -749622503#8.63 -749622503#8.83 -749622503#4 -749622503#4.84 -749622503#2 -749622503#2.9 -749622503#2.29 -749622503#2.64 -749622503#2.84 -369877039 -369877039.36 -369877039.55 -428088903#1 -428088903#1.15 428231560#0 428231560#0.10 338073582#0 338073582#0.20 -6502980#13 -6502980#13.10 -6502980#13.20 -6502980#13.36 -6502980#13.49 -6502980#13.55 -6502980#13.82 -263669002#2 -263669002#2.5 -263669002#2.46 -263669002#2.76 -263669002#2.86 465971498#0 465971498#0.9 465971498#0.59 465971498#0.83 465971498#0.86 465971498#0.88 465971498#0.90 465971498#0.91 6514305#0 6514305#0.3 6514305#0.4 6514305#0.9 6514305#0.14 6514305#0.34 6514305#0.54 353690159#1 353690159#1.50 353690159#1.92 -6343878#11 -6343878#11.8 -6343878#11.104 6463530#10 6463530#10.5 6463530#10.49 6463530#10.87 6435230#8 6435230#9 436480243#0 436480243#0.15 436480243#0.34 436480243#0.43 353690159#9 353690159#9.9 353690159#9.28 353690159#9.40 353690159#9.53 353690159#9.88 -243338979#3 -243338979#3.10 -243338979#3.38 -243338979#3.51 -243338979#3.65 6376376#4 6376376#4.5 6376376#4.86 -6476327#11 893868547#0 893868547#0.8 893868547#0.91 893868546#0 893868546#0.7 893868546#0.194 353690160#0 353690160#0.6 353690160#0.88 -22917111#2 -22917111#2.10 -22917111#2.197 876005346#3 876005346#4 876005346#4.5 876005346#4.68 -6440364#9 -6440364#9.7 -6440364#9.83 -901474739#6 -901474739#6.7 -901474739#6.37 -901474739#6.73 -22917110#2 -22917110#2.6 -22917110#2.86 -901477545#2 -901477545#2.11 -901477545#2.91 -893868551#2 -893868551#2.8 -893868551#2.91 -617435761#7 -617435761#7.10 -617435761#7.21 -617435761#4 -617435761#4.55 -617435761#4.98 -617435761#4.117 -617435761#4.130 6435230#3 6435230#3.58 6435230#5 6435230#5.75 -347094714#7 -347094714#7.12 -347094714#7.50 -347094714#7.93 -347094714#3 -347094714#3.9 -347094714#3.49 -347094714#3.92 6467490#0 6467490#0.7 6467490#0.49 6467490#0.78 -401497115 -401497115.113 -401497115.170 -401497115.214 -428233435 -460425668 -460425668.5 -6457806#2 -6457806#2.21 -6457806#2.25 -6457806#2.30 6465162#0 6465162#0.2 6465162#0.6 6465162#0.11 6465162#0.36 428233434 428233434.31 428233434.58 332223487#0 332223487#0.16 332223487#0.62 332223487#0.98 893872038 893872038.9 893872038.14 893872038.97 893872038.123 893872038.129 893872038.134 347092915#0 347092915#0.8 347092915#0.32 347092915#0.44 347092915#0.89 347092915#0.182 6506833#11 6506833#11.9 6506833#11.45 6506833#11.74 6506833#11.79 6506833#15 6506833#15.8 6506833#15.10 6506833#15.35 6506833#18 6506833#18.45 749863323#4 749863323#4.7 749863323#4.50 749863323#4.155 749863323#4.186 760645197#0 760645197#0.6 760645197#0.45 760645197#0.84 844067889#0 844067889#0.8 844067889#0.47 844067889#0.85 -6371699#5 -6371699#5.8 -6371699#5.153 -6371699#5.162 -6371699#1 -6371699#1.28 573669451#0 573669451#0.28 573669451#0.63 573669451#0.78 573669451#0.83 862387686#0 862387686#0.13 862387686#0.22 -481291008#2 -481291008#2.2 -481291008#2.11 -481291008#2.24 6405732#0 6405732#0.8 6405732#0.12 6405732#0.162 6405732#0.169 6405732#3 6405732#3.8 6405732#3.58 6405732#3.206 332951498#3 332951498#3.7 332951498#3.9 332951498#3.41 332951498#3.77 -6491356#6 -6491356#6.6 -6491356#6.8 -6491356#6.179 22917669#11 22917669#11.7 22917669#13 22917669#13.1 22917669#13.41 22917669#13.75 22917669#17 22917669#17.9 22917669#17.88 22917669#17.94 -6445486#3 -6445486#3.1 -6445486#3.4 -6445486#3.6 -6445486#3.65 -6445486#3.71 -6452772#1 -6452772#1.4 -6452772#1.9 -6452772#1.91 -6388742#21 -6388742#21.6 -6388742#21.71 -8044210#1 -8044210#1.9 -8044210#1.90 -8044210#1.95 6445481#0 6445481#0.3 6445481#0.6 6445481#0.68 6445481#0.72 -6371699#12 -6371699#12.3 -6371699#12.7 -6371699#12.71 -6371699#12.94 -6371699#12.106 -6388742#15 -6388742#15.8 -6388742#15.46 -6388742#15.84 263712958#0 263712958#0.8 263712958#0.45 263712958#0.101 263712958#0.114 263712958#0.117 263712958#0.119 6445479#0 6445479#0.4 6445479#0.8 6445479#0.186 965874292#10 965874292#10.35 965874292#12 965874292#12.8 965874292#12.69 158123767#0 158123767#0.10 158123767#0.11 158123767#0.50 158123767#0.74 158123767#0.86 158123767#0.115 158123767#0.122 158123767#0.134 158123767#0.139 158123767#0.166 795669782#0 795669782#0.54 6414318#1 6414318#1.86 6414318#3 -157167355#0"/>
</vehicle>
<vehicle id = "veh16" type= "veh_passenger" depart="14420" >
<route edges =" -813722269#3 -813722269#3.7 -813722269#3.48 -813722269#3.84 -813722269#3.86 620762213#0 620762213#0.9 620762213#0.88 57883609#0 57883609#0.6 57883609#0.57 65588100#0 65588100#0.63 -6343949#6 620762212#3 620762212#4 620762212#4.122 171739207#2 171739207#2.46 -65588100#6 -65588100#6.7 6430729#9 6430729#9.48 8071898#2 8071898#3 620762214 332092195#0 332092195#0.9 332092195#0.74 460423532#0 460423532#0.2 -739843348#1 -739843348#1.10 -739843348#1.15 65588093#0 65588093#0.3 65588093#0.6 65588093#0.9 65588093#0.30 6343949#10 6343949#10.49 -6440348#10 -6440348#10.4 -6440348#10.6 -6440348#10.48 -6440348#10.83 -6440348#7 -6440348#7.9 243349944#0 243349944#0.4 243349944#0.20 243349944#0.49 243349944#4 243349944#4.53 243349944#6 243349944#7 460419011#4 337739269#1 337739269#1.30 -801995081#6 -801995081#6.9 243349944#9 243349944#10 243349944#10.7 243349944#10.84 243349944#13 243349944#13.47 243349944#13.51 243349944#15 243349944#15.48 185485132#10 185485132#11 185485132#11.115 805658294#0 805658294#0.38 805658294#0.52 6494975#10 6494975#10.11 6494975#10.19 805680044#10 336908262#0 336908262#0.48 6349133#0 6463035#10 6463035#10.48 -6353177#3 -6353177#3.7 -6353177#3.98 -6353177#3.134 336908262#4 336908262#4.6 -359671039#10 -359671039#10.86 -805658294#8 -805658294#7 -805658294#7.50 -6472289#3 243349945#15 243349945#15.47 -160624558#1 -243349944#24 -243349944#24.50 -6472289#1 -6447445#11 -22760521#2 -22760521#2.81 -22760521#2.121 428246847#0 428246847#0.8 428246847#0.22 6386110#0 6386110#0.16 6386110#0.25 6386110#0.55 -243349338#6 -243349338#6.14"/>
</vehicle>
<vehicle id = "veh17" type= "veh_passenger" depart="14420" >
<route edges =" -816616074#1 -816616074#1.10 -816616074#1.14 -816616074#1.119 428341734#4 428341734#4.8 428246439#0 428246439#0.14 428246438#0 428246438#0.8 428246440#0 428246440#0.62 800744529#0 800744529#0.7 800744529#0.52 800744529#0.89 825336588#0 825336588#0.7 96029553#0 96029553#0.9 96029553#0.15 96029553#0.59 -893866066#2 -893866066#2.7 -893866066#2.122 -353690150#2 -353690150#2.8 -353690150#2.144 293775902#0 293775902#0.7 293775902#0.52 293775902#0.90 293775902#4 293775902#4.6 293775902#4.49 293775902#4.88 -6440371#8 -6440371#8.7 -6440371#8.122 -6440371#8.124 -6440371#8.125 6464138#8 6464138#8.7 6464138#8.49 6464138#8.88 6464138#12 6464138#12.51 6464138#14 481291488#2 40416132#0 40416132#0.19 40416132#1 40416132#1.90 256994206#0 256994206#0.8 256994206#0.43 256994206#0.60 460419028#0 460419028#0.11 460419028#0.49 460419028#0.79 460419028#0.95 243349338#0 243349338#0.18 243349338#1 22917113#3 256994205#1 -185485132#6 -185485132#6.52 243349338#3 243349338#3.49 243349338#5"/>
</vehicle>
<vehicle id = "veh18" type= "veh_passenger" depart="14420" >
<route edges =" 817434294 817434294.10 817434294.36 817434294.44 817434294.63 817434294.119 6343949#0 6343949#0.7 6343949#0.86 813722270#0 813722270#0.7 813722270#0.42 813722270#0.74 813722270#0.75 813722270#0.121 6430729#3 6430729#3.9 6430729#3.48 -620762212#3 -620762212#2 -620762212#2.76 -620762212#2.120 -800744530#5 -800744530#5.9 -800744530#5.19 -800744530#5.73 -800744530#5.84 -800744530#5.118 -800744528#1 -800744528#1.8 -800744528#1.16 -800744528#1.37 -800744528#1.72 -337673339 -337673337 185882764 185882764.13 185882764.14 185882765 185882765.16 185882765.26 185882765.30 185882765.31 -243338979#28 -243338979#28.13 -243338979#28.49 -243338979#28.142 -243338979#28.143 893866065#3 893866065#3.6 893866065#3.48 893866065#3.88 -353690148#6 -353690148#6.8 -353690148#6.122 -353690148#3 -353690148#3.7 -353690148#3.59 -353690148#3.121 -353690147#3 -353690147#3.7 -353690147#3.110 -353690147#3.122 -6476327#20 -6476327#20.8 -6476327#20.163 -6476327#20.182 -6476327#20.195 486844942#4 486844942#4.7 486844942#4.31 486844942#4.73 486844942#4.89 353690160#0 353690160#0.6 353690160#0.88 22917111#3 22917111#3.9 22917111#3.50 22917111#3.112 22917111#3.129 22917111#3.131 22917111#3.134 22917111#3.173 22917111#3.196 22917111#11 22917111#11.7 22917111#11.31 22917111#11.49 22917111#11.50 22917111#11.120 22917111#11.121 22917111#14 22917111#14.7 22917111#14.9 22917111#14.122 22917111#14.123 22917111#14.125 6464138#4 6464138#4.6 6464138#4.51 6464138#4.88 -6440371#5 -6440371#5.4 -6440371#5.6 -6440371#5.7 -6440371#5.119 -6440371#5.121 -6440371#2 -6440371#2.9 -6440371#2.11 -6440371#2.121 -6440371#2.122 460419029#9 460419029#9.7 460419029#9.45 486874837#0 486874837#1 486874837#2 486874837#2.47 460419011#0 460419011#0.101 243339793#2 243339793#2.49 -801995082 -6380913#14 -6425689#3 -6425689#3.44 -460419007#0 -460419007#0.17 -460419007#0.46 -6515975#8 6463532#2 6463532#2.50 6463536#0 6463536#0.21 6463536#0.30 6463536#0.40 6463536#0.47 6463536#0.52 6463536#0.58 6463536#0.69 6463536#0.79 6463536#0.80 6516509#4 6516509#4.6 6516509#4.33 6516509#4.47 6516509#4.52 6516509#4.66 6516509#4.84 6516509#8 6516509#8.7 6516509#8.85 6507809#10 6507809#10.8 6507809#10.91 6507809#13 6507809#13.9 6507809#13.77 -6452520#5 -6452520#5.4 -6452520#5.85 169917351#19 169917351#19.6 169917351#19.71 -6523501#2 -6523501#2.5 -6523501#2.101 6497081#0 6497081#0.8 6497081#2 6497081#2.38 6497081#2.47 6497081#2.53 6497081#2.60 6497081#2.67 6497081#2.70 6497081#2.74 6497081#2.81 6497081#2.120 6497081#6 6497081#6.44 -6414318#2 -6414318#2.8 -6414318#0 -6414318#0.76 -6414318#0.81 460418987#0 460418987#0.4 460418987#0.8 -6414273#1 -6414273#1.22 -460418992#4 -460418992#4.6 -460418992#4.125 6371704#1 6371704#1.36 460418987#3 460418987#3.91 22917667#0 22917667#0.7 22917667#0.103 22917670#7 22917670#7.7 22917670#7.71 -795846818#4 -795846818#4.7 -795846818#4.95 -795846818#4.102 460418978#3 460418978#3.9 460418978#3.49 369455641#1 369455641#1.28 369455641#1.78 512126021#0 512126021#0.7 512126021#0.31 512126021#0.66 157167355#0"/>
</vehicle>
<vehicle id = "veh19" type= "veh_passenger" depart="14420" >
<route edges =" -814326475#2 -814326475#2.9 -814326475#2.24 -814326475#2.41 -814326475#2.70 -814326475#2.91 -723013181#2 -723013181#2.9 -723013181#2.18 -723013181#2.38 -723013181#0 -332601014#3 -332601014#3.31 -332601014#3.36 -332601014#3.42 65588113#0 65588113#0.12 65588113#0.104 65588113#0.135 65588113#0.237 65588113#0.250 65588113#0.253 332601013#0 332601013#0.7 332601013#0.16 332601013#0.35 332601013#0.52 332601013#0.55 332601013#0.63 658284001#0 658284001#0.6 658284001#0.39 658284001#0.53 428098988#0 428098988#0.8 428098988#0.9 428098988#0.54 428098988#0.75 428246434#0 428246434#0.18 -331930455#4 -331930455#4.14 -331930455#4.40 -331930455#4.51 -331930455#4.58 -331930455#4.91 -95600805#1 -95600805#1.11 -158612542#15 -158612542#15.93 -158612542#15.111 -158612542#12 -158612542#12.54 -158612542#12.55 -6343952#4 -6343952#4.87 -6343952#4.91 6461453#11 6461453#11.55 6461453#11.69 6461453#11.115 6461453#11.128 6461453#17 6461453#17.40 6461453#17.73 6461453#17.80 6358498#0 6358498#0.53 -749754754#1 -749754754#1.14 -749754754#1.29 -6374789#2 -6374789#2.29 -6374789#2.54 -6374789#2.90 -6474762#1 -6474762#1.50 -8071579 -6430733#1 -460421473#1 -460421473#1.60 -460421473#1.62 -460421473#1.67 -65588116#5 -65588116#5.12 -65588116#5.38 -65588116#5.44 -65588116#5.64 -65588116#5.81 6343952#0 6343952#0.45 -6511393#7 -6415868#1 -6415868#1.48 -460423541#1 -460423541#1.113 568586005 568586006 723052303 -6511393#1 -6511393#1.119 -912290518#7 -912290518#7.59 6349123#0 6349123#0.7 6349123#0.112 723052304#1 723052304#1.70 -6461453#2 -6461453#2.11 -6461453#2.114 -6461453#2.116 -6461453#2.117 -6461453#2.120 -912290518#2 -912290518#2.2 -912290518#2.24 -912290518#2.91 -912290518#2.94 158612542#0 158612542#0.8 158612542#0.40 158612542#0.49 158612542#0.58 158612542#0.111 6447455#2 6447455#2.50 6447455#2.88 6447455#2.94 -797328240#3 -797328240#3.13 -797328240#3.26 -797328240#3.65 -797328240#3.93 -797328240#3.115 -337673342#5 -337673342#5.3 -337673342#5.9 -337673342#5.13 -337673342#5.21 -337673342#5.35 -337673342#5.72 -337673342#0 6343890#0 6343890#0.54 6343890#0.56 6343890#0.58 6343890#0.59 6343890#0.61 -6475815#6 -6475815#6.16 -6475815#4 -6475815#3 -6475815#3.2 -6475815#3.17 -6475815#3.46 -428089348#3 -428089348#3.15 -428089348#3.21 -428089348#3.28 -428341218#2 -428341218#2.3 -428341218#2.9 -65588069#1 -65588069#1.13 -428089351#1 -428089351#1.16 293753570#3 293753570#3.10 293753570#3.31 293753570#3.45 293753570#3.54 293753570#3.85 293753570#6 293753570#6.10 293753570#6.38 293753570#6.84 293753570#6.86 -368560864#2 -368560864#2.7 -368560864#2.11 -368560864#2.84 -368560864#2.86 -368560864#2.88 -6462029#17 -6462029#17.2 -6462029#17.5 -6462029#17.7 -6462029#17.45 -6462029#17.88 -6511397#10 -6511397#10.7 -6511397#10.83 759056694#7 759056694#7.10 759056694#7.26 759056694#7.49 759056694#7.89 -749622503#22 -749622503#22.9 -749622503#22.51 -749622503#22.84 -749622503#18 -749622503#18.7 -749622503#18.55 -749622503#18.81 -428227803#1 -428227803#1.9 -428227860 -428227860.14 -428227828 -428227842 -428227822#1 -428227822#1.17 -428227833#1 -428227833#1.13 -428227838 -428227854#1 -428227854#1.5 -428227818 -428227865#1 -428227865#1.18 338073583#14 338073583#14.11 338073583#14.23 338073583#14.40 338073583#14.60 338073583#14.86 -80574890#3 -80574890#3.8 -80574890#3.48 -80574890#3.78 -80574890#3.88 -621283347#4 -621283347#4.8 -621283347#4.61 -621283347#4.75 -621283347#4.82 -169511255#15 -169511255#15.10 -169511255#15.84 -706262355#2 -706262355#2.9 -706262355#2.15 -706262355#2.50 -8111067#8 -8111067#8.8 -8111067#8.39 -8111067#8.57 -8111067#8.85 6394322#4 6394322#4.4 6394322#4.52 6394322#4.86 6394322#4.89 6394322#8 6394322#8.6 6394322#8.15 6394322#8.48 6394322#8.88 338073583#7 338073583#7.8 338073583#7.14 338073583#7.85 263672156#3 263672156#3.7 263672156#3.57 263672156#3.86 369877031#0 369877031#0.10 369877031#0.31 369877031#0.46 369877031#0.88 -749622503#8 -749622503#8.7 -749622503#8.63 -749622503#8.83 -749622503#4 -749622503#4.84 -749622503#2 -749622503#2.9 -749622503#2.29 -749622503#2.64 -749622503#2.84 532166310#0 532166310#0.43 532166310#0.52 -428088883#1 -428088883#1.15 -428088897 -428088888 -737711647 -332223490#1 -332223490#1.19 -428088887#1 -428088887#1.12 -428088892 -428088886#1 -428088886#1.24 -428088886#1.35 -428088886#1.45 -65588108#1 -65588108#1.18 -65588108#1.53 -332223489#3 -332223489#3.4 -332223489#3.15 -332223489#3.17 -332223489#3.21 -401497115 -401497115.113 -401497115.170 -401497115.214 -428233435 -460425668 -460425668.5 -6457806#2 -6457806#2.21 -6457806#2.25 -6457806#2.30 6465162#0 6465162#0.2 6465162#0.6 6465162#0.11 6465162#0.36 428233434 428233434.31 428233434.58 -739874554#2 -739874554#2.15 -739874554#2.40 -739874554#2.60 -739874554#2.67 622519661 622519661.8 347092914#0 347092914#0.10 347092914#0.14 347092914#0.24 347092914#0.54 347092914#0.75 347092914#0.87 332223488 332223488.25 332223488.48 332223488.65 332223488.68 332223488.88 347092907#0 347092907#0.3 347092907#0.13 347092907#0.19 347092907#0.26 347092907#0.31 347092907#0.38 347092907#0.40 347092907#0.45 347092907#0.51 332223494#0 332223494#0.18 332223494#0.35 332223494#0.144 332223494#0.171 22760519#0 22760519#0.7 22760519#0.27 22760519#3 22760519#3.9 22760519#3.21 22760519#3.33 22760519#3.91 965874292#0 965874292#0.8 965874292#0.88 965874292#3 965874292#3.1 965874292#3.48 965874292#3.59 965874292#3.86 965874292#7 965874292#7.8 965874292#7.41 965874292#10 965874292#10.35 965874292#12 965874292#12.8 965874292#12.69 158123767#0 158123767#0.10 158123767#0.11 158123767#0.50 158123767#0.74 158123767#0.86 158123767#0.115 158123767#0.122 158123767#0.134 158123767#0.139 158123767#0.166 795669782#0 795669782#0.54 6414318#1 6414318#1.86 -6497081#7 -6497081#7.86 460421481#1 460421481#1.61 460421481#1.85 256997441#0 256997441#0.11 256997441#0.18 256997441#0.62 256997441#3 256997441#3.6 256997441#3.53 6351349#5 661086629#0 -6371720#6 -185483738#0 -6414318#4 -157167355#0"/>
</vehicle>
<vehicle id = "veh20" type= "veh_passenger" depart="18025" >
<route edges =" -813722269#3 -813722269#3.7 -813722269#3.48 -813722269#3.84 -813722269#3.86 620762213#0 620762213#0.9 620762213#0.88 620762212#0 620762212#0.8 620762212#0.52 6343949#6 -65588100#1 -65588100#1.65 57883609#3 57883609#3.43 57883609#3.52 57883609#3.60 57883609#3.80 -8071898#3 6343949#8 6343949#8.52 6343949#10 6343949#10.49 6440348#11 6440348#11.4 6440348#11.7 6440348#11.62 6440348#11.73 6430729#15 6430729#15.48 525497324#8 -292812445#6 -292812445#6.50 6464042#0 6464042#0.76 6463017#2 6463017#2.44 6463017#2.48 6463017#5 6463017#6 6463017#6.48 -6386837#0 337739268 337739268.124 337739267#0 337739267#1 -481291488#10 -481291488#10.44 -481291488#10.61 -481291488#10.85 -481291488#10.132 -481291488#10.142 243349944#7 243349944#8 801995081#6 801995081#6.192 481291013#0 481291013#0.16 481291013#0.30 481291013#0.70 481291013#0.75 481291013#0.79 481291013#0.109 481291013#0.113 737709039#0 737709039#0.8 737709039#0.14 737709039#2 737709039#2.53 737709039#2.59 537678339#0 537678339#0.28 -460399791#2 -460399791#2.15 -460399791#2.17 -460399791#2.82 -460399791#2.105 -8071925#3 -8071925#3.8 -8071925#3.45 6383185#3 6383185#3.8 6384373#1 6384373#2 6384373#2.45 6384373#2.56 65588097#2 65588097#2.69 65588097#4 65588097#4.20 65588097#6 476409332#5 476409332#6 -6495798#2 -6495798#1 -6495798#1.232 -6495798#1.266 -428315592#4 -428315592#4.102 -428315592#4.134 -428315592#2 -428315592#2.25 -428315592#2.67 -428315592#2.108 -460421484#1 -460421484#1.13 -6486416#2 -6486416#2.9 -6486416#2.116 -805680044#0 -805680044#0.6 -805680044#0.45 -805680044#0.95 396055523#1 396055523#1.42 396055523#1.177 396055523#1.183 396055523#5 396055523#5.8 396055523#5.42 396055523#7 396055523#7.122 243349944#10 243349944#10.7 243349944#10.84 243349944#13 243349944#13.47 243349944#13.51 22917113#6 243349945#6 243349945#6.48 243349945#6.88 243349945#9 243349945#9.50 -6494975#8 -6494975#7 -6494975#6 -6494975#6.81 256994205#3 428246847#0 428246847#0.8 428246847#0.22 6386110#0 6386110#0.16 6386110#0.25 6386110#0.55 -243349338#6 -243349338#6.14"/>
</vehicle>
<vehicle id = "veh21" type= "veh_passenger" depart="18025" >
<route edges =" -816616074#1 -816616074#1.10 -816616074#1.14 -816616074#1.119 428341734#4 428341734#4.8 428246439#0 428246439#0.14 428246438#0 428246438#0.8 428246440#0 428246440#0.62 -800744528#1 -800744528#1.8 -800744528#1.16 -800744528#1.37 -800744528#1.72 826314456#0 826314456#0.9 826314456#0.50 826314456#0.96 826314456#0.103 349901821 825336588#0 825336588#0.7 349901822#2 349901822#2.21 332092195#0 332092195#0.9 332092195#0.74 -22917111#30 -22917111#30.9 -22917111#30.50 -22917111#30.96 -8071900#3 -8071900#3.9 -8071900#3.79 -8071900#3.91 -893866066#2 -893866066#2.7 -893866066#2.122 32135548#0 32135548#0.6 32135548#0.48 32135548#0.53 32135548#0.64 32135548#0.89 32135548#0.90 32135548#5 32135548#5.7 32135548#5.49 32135548#5.88 32135548#9 32135548#9.7 32135548#9.47 32135548#9.63 32135548#9.78 525497323#0 525497323#0.50 525497323#2 525497323#2.81 40416132#0 40416132#0.19 -460419011#2 6464126#3 6464126#3.49 -801995081#0 243339793#4 -460419028#4 6464126#6 6464126#7 6464126#7.50 22917113#2 243349338#2 243349338#3 243349338#3.49 243349338#5"/>
</vehicle>
<vehicle id = "veh22" type= "veh_passenger" depart="18025" >
<route edges =" 817434294 817434294.10 817434294.36 817434294.44 817434294.63 817434294.119 6343949#0 6343949#0.7 6343949#0.86 -816616073#1 -816616073#1.7 -569505974#1 -569505974#1.6 -569505974#1.33 -569505976#2 -569505976#2.9 -569505976#2.88 -569505976#2.115 -569505976#2.119 -569505978#1 -569505978#1.10 -569505979 -569505979.32 -569505979.79 337673338#0 337673338#0.14 337673337 337673339 826314456#0 826314456#0.9 826314456#0.50 826314456#0.96 826314456#0.103 -6476313#2 -6476313#2.11 -6476313#2.29 -6476313#2.98 -6476313#2.99 -6476313#2.103 -6476313#2.107 -164418944#3 -164418944#3.9 -164418944#3.15 -164418944#3.30 -164418944#3.35 -395933841 -243338979#28 -243338979#28.13 -243338979#28.49 -243338979#28.142 -243338979#28.143 -243338979#25 -243338979#25.8 -243338979#25.64 -243338979#25.77 -243338979#25.120 -893866060#3 -893866060#3.9 -893866060#3.31 -893866060#3.90 -475161306#1 -475161306#1.9 -475161306#1.92 -475161306#1.120 353690155#0 353690155#0.10 353690155#0.51 353690155#0.58 353690155#0.90 -243338979#17 -243338979#17.7 -243338979#17.60 -243338979#17.109 -243338979#17.118 -243338979#17.120 -243338979#12 -243338979#12.10 -243338979#12.11 -243338979#12.62 436480246#0 436480246#0.12 436480246#0.32 436480246#0.41 436480246#0.55 6372377#0 6372377#0.23 -436480245#2 -436480245#2.30 -6494871#2 -6494871#2.9 -6494871#2.89 -243338979#6 -243338979#6.31 -243338979#6.61 486844942#0 486844942#0.5 486844942#0.15 486844942#0.87 -6476327#15 -6476327#15.10 -6476327#15.38 -6476327#15.65 -6476327#11 -6476327#10 -6476327#10.8 -6476327#10.86 893868549#12 893868549#12.7 893868549#12.90 893868548#0 893868548#0.6 893868548#0.84 876005346#0 876005346#0.6 876005346#0.88 22917111#0 22917111#0.7 22917111#0.195 -353690160#2 -353690160#2.8 -353690160#2.90 353690149#0 353690149#0.9 353690149#0.132 353690149#0.196 893866055#0 893866055#0.7 893866055#0.120 893866055#0.121 353690154#0 353690154#0.7 353690154#0.49 353690154#0.90 353690154#4 353690154#4.6 353690154#4.49 353690154#4.54 353690154#4.87 353690154#8 353690154#8.7 353690154#8.42 353690154#8.50 353690154#8.92 6512920#4 6512920#4.4 6512920#4.9 6512920#4.120 6512920#4.122 6512920#6 6512920#6.5 6512920#6.7 6512920#6.126 293775902#12 293775902#12.3 293775902#12.50 -6481166#11 -6481166#11.122 -6481166#11.125 -6481166#10 -6481166#10.6 -6481166#10.8 -6481166#10.120 353690154#15 353690154#15.50 243339793#0 243339793#0.48 -460419011#0 -460419011#0.11 -460419014 -460419014.67 -6425689#1 -6425689#1.49 -6447971#8 -6447971#7 -6447971#6 6467507#4 6467507#4.48 6467507#6 6467507#6.51 -6380913#5 -6507809#6 -6507809#6.47 -6515975#5 -6515975#5.48 169917351#7 169917351#7.49 -6380913#3 -6380913#3.7 -6380913#3.66 -6380913#3.103 6385341#0 6385341#0.19 6385341#0.20 6385341#0.34 6385341#0.47 6385341#0.50 6385341#0.54 6385341#0.58 6385341#0.73 6385341#0.78 6385341#0.81 6385341#0.84 6385341#0.87 6385341#0.126 6385341#0.138 6384260#2 6384260#3 6384260#3.54 -6487445#4 -6487445#4.15 -6487445#4.55 6415147#0 6415147#0.61 6415147#2 6415147#3 6415147#4 -428247193#2 -428247193#2.56 -428247193#2.61 -428247193#2.96 -428247193#2.117 -428247193#2.121 -428247193#2.140 -428247193#2.154 -428247195 -428247195.5 -428247194#1 -428247194#1.9 -428247194#1.28 -157167355#3 -157167355#3.5 -157167355#3.43 -6414318#3 6497081#8 6497081#9 6497081#9.126 369455641#1 369455641#1.28 369455641#1.78 512126022#0 512126022#0.11 512126022#0.46 185483738#4 185483738#4.14 6485999#0 6485999#0.42 6485999#2 22917678#0 22917678#0.10 22917678#0.136 6496652#7 6496652#7.4 -6354794#2 -6354794#2.7 -6354794#0 -6467368#4 -6354836#8 -6354836#8.7 -6354836#6 -6354836#6.92 -6354836#4 -6354836#3 -6354836#2 -6354836#2.29 -6415147#7 6351349#2 6351349#3 6351349#3.107 6351349#5 661086629#0 -6371720#6 -6371720#5 -6371720#5.41 157167355#0"/>
</vehicle>
<vehicle id = "veh23" type= "veh_passenger" depart="18025" >
<route edges =" -814326475#2 -814326475#2.9 -814326475#2.24 -814326475#2.41 -814326475#2.70 -814326475#2.91 -6456052#5 -6456052#5.10 -6456052#5.36 -6456052#5.120 -607690679#4 -607690679#4.9 -607690679#4.87 -607690679#4.94 -607690679#4.99 -6447455#5 -6447455#5.3 -6447455#5.8 -6447455#5.47 158612542#6 158612542#6.7 158612542#6.50 158612542#6.74 158612542#8 158612542#8.37 158612542#8.77 158612542#8.79 158612542#11 158612542#11.75 158612542#11.76 -6430737#2 -6430737#2.22 -6430737#2.48 -6430733#6 -6430733#6.16 -6349123#8 -6343952#2 -6511393#7 6415868#2 6415868#2.24 6415868#2.65 -6349123#6 -6349123#6.48 -6349123#6.62 -6349123#6.115 -723052304#0 -723052303 -568586006 -568586005 -6522850#4 -6522850#4.47 -6522850#4.62 -6522850#4.109 -6522850#4.114 -6522850#4.122 -912290518#12 -912290518#12.6 -912290518#12.9 -912290518#12.11 -912290518#12.12 -912290518#12.53 -6511397#14 -6511397#14.3 -6511397#14.5 -6511397#14.7 -6511397#14.9 -6511397#14.18 -6511397#14.65 -6462029#13 -6462029#13.9 -6462029#13.48 -6462029#13.90 -749622503#25 -749622503#25.7 -749622503#25.85 -749622503#22 -749622503#22.9 -749622503#22.51 -749622503#22.84 22927969#3 22927969#3.7 22927969#3.49 22927969#3.90 6511397#4 6511397#4.7 6511397#4.54 6511397#4.85 -759056694#6 -759056694#6.7 -759056694#6.25 -759056694#6.49 -759056694#6.89 -759056694#2 -759056694#2.7 -759056694#2.25 -759056694#2.48 -738637224 -738637224.5 -738637224.9 -738637224.14 -738637224.23 -738637224.30 -165042063#1 -165042063#1.3 -165042063#1.13 -165042063#1.15 -759056491 -759056491.4 -759056491.8 -759056491.13 -759056491.17 -759056491.21 -759056491.26 -759056491.41 -759056491.81 -759056491.83 -759056491.88 -337673342#5 -337673342#5.3 -337673342#5.9 -337673342#5.13 -337673342#5.21 -337673342#5.35 -337673342#5.72 -607691082#1 -607691082#0 -6475815#3 -6475815#3.2 -6475815#3.17 -6475815#3.46 -428089348#3 -428089348#3.15 -428089348#3.21 -428089348#3.28 -353690151#5 -353690151#5.11 -353690151#5.12 -353690151#5.26 -353690151#5.83 -353690151#5.102 -353690151#2 -353690151#2.9 -353690151#2.22 -353690151#2.24 -353690151#2.39 -353690151#2.72 -353690151#2.92 -433500388#1 -433500388#1.11 -433500388#1.46 -433500388#1.73 -433500388#1.113 -433500388#1.115 -428088900#1 -428088900#1.10 -428088894#1 -428088894#1.25 -428088883#1 -428088883#1.15 -428088897 -428088888 -737711647 -332223490#1 -332223490#1.19 6514305#0 6514305#0.3 6514305#0.4 6514305#0.9 6514305#0.14 6514305#0.34 6514305#0.54 -6456044#8 -6456044#8.8 -6456044#8.104 6463530#6 6463530#6.6 6463530#6.49 6463530#6.89 -6343878#8 -6343878#8.7 -6343878#8.85 -6343878#5 -6343878#5.9 -6343878#5.86 -893868549#2 -893868549#2.10 -893868549#2.49 -893868549#2.89 -893868549#2.91 -893868549#2.93 -893868549#2.94 6456044#0 6456044#0.1 6456044#0.2 6456044#0.3 6456044#0.4 6456044#0.6 6456044#0.84 6467490#0 6467490#0.7 6467490#0.49 6467490#0.78 -401497115 -401497115.113 -401497115.170 -401497115.214 -537677478#2 -537677478#2.10 -537677478#2.11 -537677478#2.28 -537677478#2.36 -6456046#3 -6456046#3.6 -6456046#3.36 -6456046#3.42 -6456046#3.49 -6456046#3.56 -6456046#3.62 -6456046#3.66 -6456046#3.71 -6456046#3.76 -6456046#3.92 -6456046#3.102 -6456046#3.109 -6456046#3.112 6402586#0 6402586#0.1 6402586#0.4 6402586#0.6 6402586#0.12 6402586#0.35 6402586#0.59 6402586#4 6402586#4.72 6402586#4.75 6402586#4.77 6402586#4.80 208021560#0 208021560#0.2 208021560#0.5 208021560#0.8 208021560#0.11 208021560#0.30 208021560#0.39 208021560#0.44 208021560#0.106 208021560#0.125 208021560#0.133 208021560#0.136 739874553#0 739874553#0.66 739874553#0.80 739874553#0.88 333370569#0 333370569#0.6 333370569#0.13 333370569#0.37 333370569#0.43 333370569#0.66 333370569#0.94 333370569#0.155 333370569#0.178 333370566#0 333370566#0.32 6405076#0 6405076#0.10 6405076#0.18 6405076#0.21 6405076#0.58 6405076#0.79 6405076#0.81 6405076#3 6405076#3.4 6405076#3.8 6405076#3.14 6405076#3.20 6405076#3.50 6405076#3.68 6405076#3.84 6405076#6 6405076#6.6 6405076#6.21 6405076#6.26 6405076#6.33 6405076#6.44 6405076#6.49 6405076#6.65 6405076#6.68 6405076#6.71 6405076#6.77 6405076#6.79 6405076#6.82 6405076#6.87 256996971#0 256996971#0.7 256996971#0.23 256996971#0.32 256996971#0.37 256996971#0.85 256996974#0 256996974#0.8 256996974#0.88 256996974#3 256996974#3.6 256996974#3.29 256996974#3.56 256996974#3.86 6440364#0 6440364#0.8 6440364#0.26 6440364#0.98 6440364#0.103 6440364#4 6440364#4.6 6440364#4.86 6440364#7 6440364#7.7 6440364#7.83 901474741#0 901474741#0.6 901474741#0.85 901474741#0.87 6467507#0 6467507#0.7 6467507#0.88 6467507#3 -6447971#5 -6447971#4 -169917351#5 -169917351#5.46 -169917351#3 -169917351#3.10 -169917351#3.45 -169917351#3.90 -901474740#3 -901474740#3.7 -901474740#3.53 -901474740#3.61 -901474740#3.102 243338978#0 243338978#0.9 243338978#0.58 243338978#0.71 243338978#4 243338978#4.8 243338978#4.84 243338978#7 243338978#7.8 243338978#7.38 243338978#7.45 243338978#7.74 965874292#0 965874292#0.8 965874292#0.88 -22917664#2 -22917664#2.11 -22917664#2.76 881403607#0 881403607#0.25 881403607#0.42 881403608#3 881403608#3.2 881403608#3.5 881403608#3.8 881403608#3.11 976099002#0 976099002#0.34 976099002#0.40 976099002#0.64 965874292#7 965874292#7.8 965874292#7.41 965874292#10 965874292#10.35 965874292#12 965874292#12.8 965874292#12.69 158123767#0 158123767#0.10 158123767#0.11 158123767#0.50 158123767#0.74 158123767#0.86 158123767#0.115 158123767#0.122 158123767#0.134 158123767#0.139 158123767#0.166 795669781 795669781.52 795669781.56 460421481#1 460421481#1.61 460421481#1.85 256997441#0 256997441#0.11 256997441#0.18 256997441#0.62 14374224#4 14374224#4.44 14374224#4.54 14374224#4.84 14374224#4.122 -6414318#4 -157167355#0"/>
</vehicle>
<vehicle id = "veh24" type= "veh_passenger" depart="21630" >
<route edges =" -813722269#3 -813722269#3.7 -813722269#3.48 -813722269#3.84 -813722269#3.86 620762213#0 620762213#0.9 620762213#0.88 57883609#0 57883609#0.6 57883609#0.57 57883609#3 57883609#3.43 57883609#3.52 57883609#3.60 57883609#3.80 179551719 179551719.37 179551719.46 179551719.51 179551719.88 179551719.93 179551719.97 739843348#0 739843348#0.4 739843348#0.9 620762218#0 620762218#0.55 620762218#0.66 620762218#0.68 620762218#0.81 620762218#3 620762218#3.7 620762218#5 620762218#5.18 620762218#5.80 343521145#0 343521145#0.47 343521145#0.69 337739267#0 337818462 337818462.3 337818462.6 337739271#1 337739271#1.6 337739269#0 337739269#1 337739269#1.30 337739269#3 337739269#3.69 396055523#5 396055523#5.8 396055523#5.42 243349945#0 243349945#0.6 243349945#0.83 -6360256#9 -6360256#9.6 -6360256#7 -6360256#7.5 -6447445#2 -6447445#2.7 -6447445#2.86 396055523#11 396055523#11.17 396055523#11.23 396055523#11.42 396055523#11.62 396055523#11.85 396055523#11.96 396055523#11.121 396055524#0 396055524#0.9 396055524#0.30 396055524#0.54 396055524#0.65 256994205#0 256994205#0.67 22917113#4 6447445#5 6447445#5.47 -185485132#8 -185485132#8.81 256994205#2 256994205#2.24 256994205#2.72 6494975#5 6494975#5.50 6447445#9 6447445#9.49 -22760521#2 -22760521#2.81 -22760521#2.121 428246847#0 428246847#0.8 428246847#0.22 6386110#0 6386110#0.16 6386110#0.25 6386110#0.55 -243349338#6 -243349338#6.14"/>
</vehicle>
<vehicle id = "veh25" type= "veh_passenger" depart="21630" >
<route edges =" -816616074#1 -816616074#1.10 -816616074#1.14 -816616074#1.119 428341734#4 428341734#4.8 428246439#0 428246439#0.14 428246438#0 428246438#0.8 428246440#0 428246440#0.62 800744529#0 800744529#0.7 800744529#0.52 800744529#0.89 -349901821 349901822#0 349901822#0.9 96029553#0 96029553#0.9 96029553#0.15 96029553#0.59 8071900#0 8071900#0.7 8071900#0.18 8071900#0.88 -22917111#26 -22917111#26.7 -22917111#26.41 -22917111#26.121 32135548#5 32135548#5.7 32135548#5.49 32135548#5.88 -6440371#11 -6440371#11.12 -6440371#11.144 293775902#8 293775902#8.6 293775902#8.49 293775902#8.91 293775902#12 293775902#12.3 293775902#12.50 6481166#12 66558981#0 66558981#0.29 66558981#0.132 243349944#6 243349944#7 243349944#8 -801995081#5 -801995081#5.197 -801995081#5.209 -801995081#2 -801995081#2.109 -801995081#0 -801995082 481291014#0 481291014#0.53 -460419028#7 -460419028#7.7 -460419028#7.33 -460419028#7.45 243339793#5 -6360256#0 -6360256#0.8 486875123#0 486875123#0.56 486875123#0.88 22917112 243339793#9 243339793#9.48 243339793#11 243339793#11.47 6494975#1 6494975#1.9 6494975#2 243349338#5"/>
</vehicle>
<vehicle id = "veh26" type= "veh_passenger" depart="21630" >
<route edges =" 817434294 817434294.10 817434294.36 817434294.44 817434294.63 817434294.119 816616072#4 816616072#4.7 816616072#4.62 816616072#4.121 6430729#0 6430729#0.7 6430729#0.86 813722270#5 813722270#5.7 813722270#5.118 171739207#0 171739207#0.49 -620762212#5 -620762212#5.7 -620762212#3 -6343949#5 -6343949#5.49 -6343949#5.90 -816616073#1 -816616073#1.7 -569505974#1 -569505974#1.6 -569505974#1.33 -569505976#2 -569505976#2.9 -569505976#2.88 -569505976#2.115 -569505976#2.119 -569505978#1 -569505978#1.10 -569505979 -569505979.32 -569505979.79 337673338#0 337673338#0.14 185882764 185882764.13 185882764.14 185882765 185882765.16 185882765.26 185882765.30 185882765.31 395933841 164418944#0 164418944#0.13 164418944#0.18 164418944#0.32 164418944#0.39 -353690148#9 -353690148#9.7 -353690148#9.10 -353690148#9.12 -353690148#9.13 -353690148#9.38 -353690148#9.143 -353690148#6 -353690148#6.8 -353690148#6.122 893866060#8 893866060#8.7 893866060#8.65 893866060#8.89 6464138#0 6464138#0.7 6464138#0.53 6464138#0.92 6464138#4 6464138#4.6 6464138#4.51 6464138#4.88 6464138#8 6464138#8.7 6464138#8.49 6464138#8.88 6464138#12 6464138#12.51 6464138#14 -481291488#1 -481291488#0 -481291488#0.69 -481291488#0.82 -6447971#10 -6447971#10.11 -6447971#9 6425689#0 6425689#0.48 460419007#1 460419007#1.26 460419013#0 460419013#0.51 -6380913#14 -6380913#13 -6380913#12 -6380913#11 -6380913#11.53 -6463532#3 -6463532#3.45 -6515975#7 -6515975#6 -6507809#4 6447971#5 -6467507#3 -6481166#5 -6481166#4 -6481166#3 -6481166#3.7 -6481166#3.37 -6481166#3.105 256996972 256996972.16 256996972.70 881403606#0 881403606#0.12 881403606#0.42 881403606#0.83 881403606#0.85 22917665#0 22917665#0.7 -6445835#1 -6445835#1.53 256996973#0 256996973#0.33 256996973#0.45 256996973#0.49 256996975#0 256996975#0.50 256996975#0.62 256996975#0.65 256996975#0.91 -6516509#20 -6516509#20.12 -6516509#20.14 -6516509#20.29 -6516509#20.33 -6516509#20.42 -6516509#20.45 -6516509#20.65 -6516509#20.78 -6516509#20.106 169917351#12 169917351#12.9 169917351#12.42 169917351#12.90 169917351#16 169917351#16.9 169917351#16.77 -6452520#2 -6452520#2.4 -6452520#2.101 460421482#0 460421482#0.8 460421482#0.73 460421482#3 460421482#3.8 460421482#3.48 460421482#3.55 460421482#3.72 6358721#0 6358721#0.9 -6415147#3 6497081#2 6497081#2.38 6497081#2.47 6497081#2.53 6497081#2.60 6497081#2.67 6497081#2.70 6497081#2.74 6497081#2.81 6497081#2.120 6497081#6 6497081#6.44 -6414318#2 -6414318#2.8 795669782#2 6371720#2 6371720#3 157167355#0"/>
</vehicle>
<vehicle id = "veh27" type= "veh_passenger" depart="21630" >
<route edges =" -814326475#2 -814326475#2.9 -814326475#2.24 -814326475#2.41 -814326475#2.70 -814326475#2.91 -6456052#5 -6456052#5.10 -6456052#5.36 -6456052#5.120 -6456052#1 -6456052#1.10 -6456052#1.62 -607691082#1 6501701#2 6501701#2.50 6501701#2.60 -6475815#4 -6475815#3 -6475815#3.2 -6475815#3.17 -6475815#3.46 -428089348#3 -428089348#3.15 -428089348#3.21 -428089348#3.28 -353690151#5 -353690151#5.11 -353690151#5.12 -353690151#5.26 -353690151#5.83 -353690151#5.102 -353690151#2 -353690151#2.9 -353690151#2.22 -353690151#2.24 -353690151#2.39 -353690151#2.72 -353690151#2.92 -433500388#1 -433500388#1.11 -433500388#1.46 -433500388#1.73 -433500388#1.113 -433500388#1.115 -369877024#7 -369877024#7.3 -369877024#7.5 -369877024#7.8 -369877024#7.10 -369877024#7.16 -369877024#7.21 -369877024#7.102 -749622503#2 -749622503#2.9 -749622503#2.29 -749622503#2.64 -749622503#2.84 -369877039 -369877039.36 -369877039.55 -428088903#1 -428088903#1.15 428231018#0 428231018#0.12 428231018#0.30 465971497#0 465971497#0.10 465971497#0.34 369877037#0 369877037#0.9 369877037#0.83 537686684#0 537686684#0.43 537686684#0.53 -332223489#3 -332223489#3.4 -332223489#3.15 -332223489#3.17 -332223489#3.21 -401497115 -401497115.113 -401497115.170 -401497115.214 -428233435 -460425668 -460425668.5 425646007#0 425646007#0.10 425646007#0.17 425646007#0.20 425646007#0.22 425646007#0.27 425646003#0 425646003#0.15 6476922#0 6476922#0.13 6476922#0.24 6476922#0.37 6476922#0.60 6476922#0.67 6413383#0 6413383#0.1 6413383#0.3 6413383#0.6 6413383#0.18 6413383#0.26 6413383#0.47 428233432#0 428233432#0.11 428233432#0.22 332223487#0 332223487#0.16 332223487#0.62 332223487#0.98 332223488 332223488.25 332223488.48 332223488.65 332223488.68 332223488.88 347092907#0 347092907#0.3 347092907#0.13 347092907#0.19 347092907#0.26 347092907#0.31 347092907#0.38 347092907#0.40 347092907#0.45 347092907#0.51 332223494#0 332223494#0.18 332223494#0.35 332223494#0.144 332223494#0.171 6506833#15 6506833#15.8 6506833#15.10 6506833#15.35 6506833#18 6506833#18.45 -749863323#3 -749863323#3.10 -749863323#3.85 -749863323#3.126 792010743#0 792010743#0.26 792010743#0.59 792010743#2 792010743#2.11 792010743#2.16 6371699#0 6371699#0.9 -6506833#28 -6506833#28.6 -6506833#28.45 -6506833#28.63 -6506833#28.85 263712957#13 263712957#13.7 263712957#13.54 263712957#13.186 844067888#0 844067888#0.8 844067888#0.63 844067888#0.137 844067888#0.187 -6388742#11 -6388742#11.8 -6388742#11.30 -6388742#11.46 -6388742#11.67 -6388742#11.87 -6388742#5 -6388742#5.6 -6388742#5.38 -6388742#2 -6388742#2.30 -6388742#2.38 965874292#7 965874292#7.8 965874292#7.41 965874292#10 965874292#10.35 965874292#12 965874292#12.8 965874292#12.69 158123767#0 158123767#0.10 158123767#0.11 158123767#0.50 158123767#0.74 158123767#0.86 158123767#0.115 158123767#0.122 158123767#0.134 158123767#0.139 158123767#0.166 795669781 795669781.52 795669781.56 460421481#1 460421481#1.61 460421481#1.85 -428247194#1 -428247194#1.9 -428247194#1.28 -157167355#3 -157167355#3.5 -157167355#3.43 -157167355#0"/>
</vehicle>
</routes>
